Ro05-3061
  SciTegic05270810122D

 19 21  0  0  0  0            999 V2000
   -2.8265    0.7721    0.0000 C   0  0
   -2.8207   -0.7526    0.0000 C   0  0
   -1.4746   -1.5097    0.0000 C   0  0
    0.0108   -0.7417    0.0000 C   0  0
    0.0050    0.7829    0.0000 C   0  0
   -1.4863    1.5396    0.0000 C   0  0
    0.7584   -1.6282    0.0000 C   0  0
    2.2458   -1.3866    0.0000 N   0  0
    2.9483    0.0319    0.0000 C   0  0
    2.2532    1.4268    0.0000 C   0  0
    0.7819    1.7116    0.0000 N   0  0
    0.2374   -3.0356    0.0000 C   0  0
    2.9793    2.3822    0.0000 O   0  0
   -3.8554   -1.3604    0.0000 F   0  0
    1.1987   -4.1875    0.0000 C   0  0
    0.6821   -5.5958    0.0000 C   0  0
   -0.7958   -5.8525    0.0000 C   0  0
   -1.7570   -4.7010    0.0000 C   0  0
   -1.2404   -3.2927    0.0000 C   0  0
  1  2  2  0
  1  6  1  0
  2  3  1  0
  2 14  1  0
  3  4  2  0
  4  5  1  0
  4  7  1  0
  5  6  2  0
  5 11  1  0
  7  8  2  0
  7 12  1  0
  8  9  1  0
  9 10  1  0
 10 11  1  0
 10 13  2  0
 12 15  2  0
 12 19  1  0
 15 16  1  0
 16 17  2  0
 17 18  1  0
 18 19  2  0
M  END
> <Name>
Ro05-3061

> <Family>
A.1

> <IC50_uM>
0.040000

> <set>
1

$$$$
Ro05-4865
  SciTegic05270810122D

 20 22  0  0  0  0            999 V2000
   -2.8265    0.7721    0.0000 C   0  0
   -2.8207   -0.7526    0.0000 C   0  0
   -1.4746   -1.5097    0.0000 C   0  0
    0.0108   -0.7417    0.0000 C   0  0
    0.0050    0.7829    0.0000 C   0  0
   -1.4863    1.5396    0.0000 C   0  0
    0.7584   -1.6282    0.0000 C   0  0
    2.2458   -1.3866    0.0000 N   0  0
    2.9483    0.0319    0.0000 C   0  0
    2.2532    1.4268    0.0000 C   0  0
    0.7819    1.7116    0.0000 N   0  0
    0.2374   -3.0356    0.0000 C   0  0
    2.9793    2.3822    0.0000 O   0  0
   -3.8554   -1.3604    0.0000 F   0  0
    1.1987   -4.1875    0.0000 C   0  0
    0.6821   -5.5958    0.0000 C   0  0
   -0.7958   -5.8525    0.0000 C   0  0
   -1.7570   -4.7010    0.0000 C   0  0
   -1.2404   -3.2927    0.0000 C   0  0
    0.3801    2.8423    0.0000 C   0  0
  1  2  2  0
  1  6  1  0
  2  3  1  0
  2 14  1  0
  3  4  2  0
  4  5  1  0
  4  7  1  0
  5  6  2  0
  5 11  1  0
  7  8  2  0
  7 12  1  0
  8  9  1  0
  9 10  1  0
 10 11  1  0
 10 13  2  0
 11 20  1  0
 12 15  2  0
 12 19  1  0
 15 16  1  0
 16 17  2  0
 17 18  1  0
 18 19  2  0
M  END
> <Name>
Ro05-4865

> <Family>
A.1

> <IC50_uM>
0.017000

> <set>
1

$$$$
Ro05-6820
  SciTegic05270810122D

 20 22  0  0  0  0            999 V2000
   -2.8265    0.7721    0.0000 C   0  0
   -2.8207   -0.7526    0.0000 C   0  0
   -1.4746   -1.5097    0.0000 C   0  0
    0.0108   -0.7417    0.0000 C   0  0
    0.0050    0.7829    0.0000 C   0  0
   -1.4863    1.5396    0.0000 C   0  0
    0.7584   -1.6282    0.0000 C   0  0
    2.2458   -1.3866    0.0000 N   0  0
    2.9483    0.0319    0.0000 C   0  0
    2.2532    1.4268    0.0000 C   0  0
    0.7819    1.7116    0.0000 N   0  0
    0.2374   -3.0356    0.0000 C   0  0
    2.9793    2.3822    0.0000 O   0  0
   -3.8554   -1.3604    0.0000 F   0  0
   -1.2404   -3.2927    0.0000 C   0  0
   -1.7570   -4.7010    0.0000 C   0  0
   -0.7958   -5.8525    0.0000 C   0  0
    0.6821   -5.5958    0.0000 C   0  0
    1.1987   -4.1875    0.0000 C   0  0
    2.3810   -3.9822    0.0000 F   0  0
  1  2  2  0
  1  6  1  0
  2  3  1  0
  2 14  1  0
  3  4  2  0
  4  5  1  0
  4  7  1  0
  5  6  2  0
  5 11  1  0
  7  8  2  0
  7 12  1  0
  8  9  1  0
  9 10  1  0
 10 11  1  0
 10 13  2  0
 12 15  2  0
 12 19  1  0
 15 16  1  0
 16 17  2  0
 17 18  1  0
 18 19  2  0
 19 20  1  0
M  END
> <Name>
Ro05-6820

> <Family>
A.1

> <IC50_uM>
0.007400

> <set>
2

$$$$
Ro05-6822
  SciTegic05270810122D

 21 23  0  0  0  0            999 V2000
   -2.8265    0.7721    0.0000 C   0  0
   -2.8207   -0.7526    0.0000 C   0  0
   -1.4746   -1.5097    0.0000 C   0  0
    0.0108   -0.7417    0.0000 C   0  0
    0.0050    0.7829    0.0000 C   0  0
   -1.4863    1.5396    0.0000 C   0  0
    0.7584   -1.6282    0.0000 C   0  0
    2.2458   -1.3866    0.0000 N   0  0
    2.9483    0.0319    0.0000 C   0  0
    2.2532    1.4268    0.0000 C   0  0
    0.7819    1.7116    0.0000 N   0  0
    0.2374   -3.0356    0.0000 C   0  0
    2.9793    2.3822    0.0000 O   0  0
   -3.8554   -1.3604    0.0000 F   0  0
   -1.2404   -3.2927    0.0000 C   0  0
   -1.7570   -4.7010    0.0000 C   0  0
   -0.7958   -5.8525    0.0000 C   0  0
    0.6821   -5.5958    0.0000 C   0  0
    1.1987   -4.1875    0.0000 C   0  0
    2.3810   -3.9822    0.0000 F   0  0
    0.3801    2.8423    0.0000 C   0  0
  1  2  2  0
  1  6  1  0
  2  3  1  0
  2 14  1  0
  3  4  2  0
  4  5  1  0
  4  7  1  0
  5  6  2  0
  5 11  1  0
  7  8  2  0
  7 12  1  0
  8  9  1  0
  9 10  1  0
 10 11  1  0
 10 13  2  0
 11 21  1  0
 12 15  2  0
 12 19  1  0
 15 16  1  0
 16 17  2  0
 17 18  1  0
 18 19  2  0
 19 20  1  0
M  END
> <Name>
Ro05-6822

> <Family>
A.1

> <IC50_uM>
0.005100

> <set>
1

$$$$
Nordazepam
  SciTegic05270810122D

 19 21  0  0  0  0            999 V2000
   -2.8265    0.7721    0.0000 C   0  0
   -2.8207   -0.7526    0.0000 C   0  0
   -1.4746   -1.5097    0.0000 C   0  0
    0.0108   -0.7417    0.0000 C   0  0
    0.0050    0.7829    0.0000 C   0  0
   -1.4863    1.5396    0.0000 C   0  0
    0.7584   -1.6282    0.0000 C   0  0
    2.2458   -1.3866    0.0000 N   0  0
    2.9483    0.0319    0.0000 C   0  0
    2.2532    1.4268    0.0000 C   0  0
    0.7819    1.7116    0.0000 N   0  0
    0.2374   -3.0356    0.0000 C   0  0
    2.9793    2.3822    0.0000 O   0  0
   -3.8554   -1.3604    0.0000 Cl  0  0
    1.1987   -4.1875    0.0000 C   0  0
    0.6821   -5.5958    0.0000 C   0  0
   -0.7958   -5.8525    0.0000 C   0  0
   -1.7570   -4.7010    0.0000 C   0  0
   -1.2404   -3.2927    0.0000 C   0  0
  1  2  2  0
  1  6  1  0
  2  3  1  0
  2 14  1  0
  3  4  2  0
  4  5  1  0
  4  7  1  0
  5  6  2  0
  5 11  1  0
  7  8  2  0
  7 12  1  0
  8  9  1  0
  9 10  1  0
 10 11  1  0
 10 13  2  0
 12 15  2  0
 12 19  1  0
 15 16  1  0
 16 17  2  0
 17 18  1  0
 18 19  2  0
M  END
> <Name>
Nordazepam

> <Family>
A.1

> <IC50_uM>
0.009400

> <set>
0

$$$$
Diazepam
  SciTegic05270810122D

 20 22  0  0  0  0            999 V2000
   -2.8265    0.7721    0.0000 C   0  0
   -2.8207   -0.7526    0.0000 C   0  0
   -1.4746   -1.5097    0.0000 C   0  0
    0.0108   -0.7417    0.0000 C   0  0
    0.0050    0.7829    0.0000 C   0  0
   -1.4863    1.5396    0.0000 C   0  0
    0.7584   -1.6282    0.0000 C   0  0
    2.2458   -1.3866    0.0000 N   0  0
    2.9483    0.0319    0.0000 C   0  0
    2.2532    1.4268    0.0000 C   0  0
    0.7819    1.7116    0.0000 N   0  0
    0.2374   -3.0356    0.0000 C   0  0
    2.9793    2.3822    0.0000 O   0  0
   -3.8554   -1.3604    0.0000 Cl  0  0
    1.1987   -4.1875    0.0000 C   0  0
    0.6821   -5.5958    0.0000 C   0  0
   -0.7958   -5.8525    0.0000 C   0  0
   -1.7570   -4.7010    0.0000 C   0  0
   -1.2404   -3.2927    0.0000 C   0  0
    0.3801    2.8423    0.0000 C   0  0
  1  2  2  0
  1  6  1  0
  2  3  1  0
  2 14  1  0
  3  4  2  0
  4  5  1  0
  4  7  1  0
  5  6  2  0
  5 11  1  0
  7  8  2  0
  7 12  1  0
  8  9  1  0
  9 10  1  0
 10 11  1  0
 10 13  2  0
 11 20  1  0
 12 15  2  0
 12 19  1  0
 15 16  1  0
 16 17  2  0
 17 18  1  0
 18 19  2  0
M  END
> <Name>
Diazepam

> <Family>
A.1

> <IC50_uM>
0.008100

> <set>
0

$$$$
Ro05-3367
  SciTegic05270810122D

 20 22  0  0  0  0            999 V2000
   -2.8265    0.7721    0.0000 C   0  0
   -2.8207   -0.7526    0.0000 C   0  0
   -1.4746   -1.5097    0.0000 C   0  0
    0.0108   -0.7417    0.0000 C   0  0
    0.0050    0.7829    0.0000 C   0  0
   -1.4863    1.5396    0.0000 C   0  0
    0.7584   -1.6282    0.0000 C   0  0
    2.2458   -1.3866    0.0000 N   0  0
    2.9483    0.0319    0.0000 C   0  0
    2.2532    1.4268    0.0000 C   0  0
    0.7819    1.7116    0.0000 N   0  0
    0.2374   -3.0356    0.0000 C   0  0
    2.9793    2.3822    0.0000 O   0  0
   -3.8554   -1.3604    0.0000 Cl  0  0
   -1.2404   -3.2927    0.0000 C   0  0
   -1.7570   -4.7010    0.0000 C   0  0
   -0.7958   -5.8525    0.0000 C   0  0
    0.6821   -5.5958    0.0000 C   0  0
    1.1987   -4.1875    0.0000 C   0  0
    2.3810   -3.9822    0.0000 F   0  0
  1  2  2  0
  1  6  1  0
  2  3  1  0
  2 14  1  0
  3  4  2  0
  4  5  1  0
  4  7  1  0
  5  6  2  0
  5 11  1  0
  7  8  2  0
  7 12  1  0
  8  9  1  0
  9 10  1  0
 10 11  1  0
 10 13  2  0
 12 15  2  0
 12 19  1  0
 15 16  1  0
 16 17  2  0
 17 18  1  0
 18 19  2  0
 19 20  1  0
M  END
> <Name>
Ro05-3367

> <Family>
A.1

> <IC50_uM>
0.002000

> <set>
0

$$$$
Ro07-3953
  SciTegic05270810122D

 21 23  0  0  0  0            999 V2000
   -2.8265    0.7721    0.0000 C   0  0
   -2.8207   -0.7526    0.0000 C   0  0
   -1.4746   -1.5097    0.0000 C   0  0
    0.0108   -0.7417    0.0000 C   0  0
    0.0050    0.7829    0.0000 C   0  0
   -1.4863    1.5396    0.0000 C   0  0
    0.7584   -1.6282    0.0000 C   0  0
    2.2458   -1.3866    0.0000 N   0  0
    2.9483    0.0319    0.0000 C   0  0
    2.2532    1.4268    0.0000 C   0  0
    0.7819    1.7116    0.0000 N   0  0
    0.2374   -3.0356    0.0000 C   0  0
    2.9793    2.3822    0.0000 O   0  0
   -3.8554   -1.3604    0.0000 Cl  0  0
    1.1987   -4.1875    0.0000 C   0  0
    0.6821   -5.5958    0.0000 C   0  0
   -0.7958   -5.8525    0.0000 C   0  0
   -1.7570   -4.7010    0.0000 C   0  0
   -1.2404   -3.2927    0.0000 C   0  0
   -2.0096   -2.3716    0.0000 F   0  0
    2.3810   -3.9822    0.0000 F   0  0
  1  2  2  0
  1  6  1  0
  2  3  1  0
  2 14  1  0
  3  4  2  0
  4  5  1  0
  4  7  1  0
  5  6  2  0
  5 11  1  0
  7  8  2  0
  7 12  1  0
  8  9  1  0
  9 10  1  0
 10 11  1  0
 10 13  2  0
 12 15  2  0
 12 19  1  0
 15 16  1  0
 15 21  1  0
 16 17  2  0
 17 18  1  0
 18 19  2  0
 19 20  1  0
M  END
> <Name>
Ro07-3953

> <Family>
A.1

> <IC50_uM>
0.001600

> <set>
0

$$$$
Ro07-4065
  SciTegic05270810122D

 22 24  0  0  0  0            999 V2000
   -2.8265    0.7721    0.0000 C   0  0
   -2.8207   -0.7526    0.0000 C   0  0
   -1.4746   -1.5097    0.0000 C   0  0
    0.0108   -0.7417    0.0000 C   0  0
    0.0050    0.7829    0.0000 C   0  0
   -1.4863    1.5396    0.0000 C   0  0
    0.7584   -1.6282    0.0000 C   0  0
    2.2458   -1.3866    0.0000 N   0  0
    2.9483    0.0319    0.0000 C   0  0
    2.2532    1.4268    0.0000 C   0  0
    0.7819    1.7116    0.0000 N   0  0
    0.2374   -3.0356    0.0000 C   0  0
    2.9793    2.3822    0.0000 O   0  0
   -3.8554   -1.3604    0.0000 Cl  0  0
    1.1987   -4.1875    0.0000 C   0  0
    0.6821   -5.5958    0.0000 C   0  0
   -0.7958   -5.8525    0.0000 C   0  0
   -1.7570   -4.7010    0.0000 C   0  0
   -1.2404   -3.2927    0.0000 C   0  0
   -2.0096   -2.3716    0.0000 F   0  0
    2.3810   -3.9822    0.0000 F   0  0
    0.3801    2.8423    0.0000 C   0  0
  1  2  2  0
  1  6  1  0
  2  3  1  0
  2 14  1  0
  3  4  2  0
  4  5  1  0
  4  7  1  0
  5  6  2  0
  5 11  1  0
  7  8  2  0
  7 12  1  0
  8  9  1  0
  9 10  1  0
 10 11  1  0
 10 13  2  0
 11 22  1  0
 12 15  2  0
 12 19  1  0
 15 16  1  0
 15 21  1  0
 16 17  2  0
 17 18  1  0
 18 19  2  0
 19 20  1  0
M  END
> <Name>
Ro07-4065

> <Family>
A.1

> <IC50_uM>
0.004100

> <set>
0

$$$$
Delorazepam
  SciTegic05270810122D

 20 22  0  0  0  0            999 V2000
   -2.8265    0.7721    0.0000 C   0  0
   -2.8207   -0.7526    0.0000 C   0  0
   -1.4746   -1.5097    0.0000 C   0  0
    0.0108   -0.7417    0.0000 C   0  0
    0.0050    0.7829    0.0000 C   0  0
   -1.4863    1.5396    0.0000 C   0  0
    0.7584   -1.6282    0.0000 C   0  0
    2.2458   -1.3866    0.0000 N   0  0
    2.9483    0.0319    0.0000 C   0  0
    2.2532    1.4268    0.0000 C   0  0
    0.7819    1.7116    0.0000 N   0  0
    0.2374   -3.0356    0.0000 C   0  0
    2.9793    2.3822    0.0000 O   0  0
   -3.8554   -1.3604    0.0000 Cl  0  0
   -1.2404   -3.2927    0.0000 C   0  0
   -1.7570   -4.7010    0.0000 C   0  0
   -0.7958   -5.8525    0.0000 C   0  0
    0.6821   -5.5958    0.0000 C   0  0
    1.1987   -4.1875    0.0000 C   0  0
    2.3810   -3.9822    0.0000 Cl  0  0
  1  2  2  0
  1  6  1  0
  2  3  1  0
  2 14  1  0
  3  4  2  0
  4  5  1  0
  4  7  1  0
  5  6  2  0
  5 11  1  0
  7  8  2  0
  7 12  1  0
  8  9  1  0
  9 10  1  0
 10 11  1  0
 10 13  2  0
 12 15  2  0
 12 19  1  0
 15 16  1  0
 16 17  2  0
 17 18  1  0
 18 19  2  0
 19 20  1  0
M  END
> <Name>
Delorazepam

> <Family>
A.1

> <IC50_uM>
0.001800

> <set>
0

$$$$
Ro07-5193
  SciTegic05270810122D

 21 23  0  0  0  0            999 V2000
   -2.8265    0.7721    0.0000 C   0  0
   -2.8207   -0.7526    0.0000 C   0  0
   -1.4746   -1.5097    0.0000 C   0  0
    0.0108   -0.7417    0.0000 C   0  0
    0.0050    0.7829    0.0000 C   0  0
   -1.4863    1.5396    0.0000 C   0  0
    0.7584   -1.6282    0.0000 C   0  0
    2.2458   -1.3866    0.0000 N   0  0
    2.9483    0.0319    0.0000 C   0  0
    2.2532    1.4268    0.0000 C   0  0
    0.7819    1.7116    0.0000 N   0  0
    0.2374   -3.0356    0.0000 C   0  0
    2.9793    2.3822    0.0000 O   0  0
   -3.8554   -1.3604    0.0000 Cl  0  0
    1.1987   -4.1875    0.0000 C   0  0
    0.6821   -5.5958    0.0000 C   0  0
   -0.7958   -5.8525    0.0000 C   0  0
   -1.7570   -4.7010    0.0000 C   0  0
   -1.2404   -3.2927    0.0000 C   0  0
   -2.0096   -2.3716    0.0000 Cl  0  0
    2.3810   -3.9822    0.0000 F   0  0
  1  2  2  0
  1  6  1  0
  2  3  1  0
  2 14  1  0
  3  4  2  0
  4  5  1  0
  4  7  1  0
  5  6  2  0
  5 11  1  0
  7  8  2  0
  7 12  1  0
  8  9  1  0
  9 10  1  0
 10 11  1  0
 10 13  2  0
 12 15  2  0
 12 19  1  0
 15 16  1  0
 15 21  1  0
 16 17  2  0
 17 18  1  0
 18 19  2  0
 19 20  1  0
M  END
> <Name>
Ro07-5193

> <Family>
A.1

> <IC50_uM>
0.003000

> <set>
0

$$$$
Ro22-3294
  SciTegic05270810122D

 21 23  0  0  0  0            999 V2000
   -2.8265    0.7721    0.0000 C   0  0
   -2.8207   -0.7526    0.0000 C   0  0
   -1.4746   -1.5097    0.0000 C   0  0
    0.0108   -0.7417    0.0000 C   0  0
    0.0050    0.7829    0.0000 C   0  0
   -1.4863    1.5396    0.0000 C   0  0
    0.7584   -1.6282    0.0000 C   0  0
    2.2458   -1.3866    0.0000 N   0  0
    2.9483    0.0319    0.0000 C   0  0
    2.2532    1.4268    0.0000 C   0  0
    0.7819    1.7116    0.0000 N   0  0
    0.2374   -3.0356    0.0000 C   0  0
    2.9793    2.3822    0.0000 O   0  0
   -3.8554   -1.3604    0.0000 Cl  0  0
    1.1987   -4.1875    0.0000 C   0  0
    0.6821   -5.5958    0.0000 C   0  0
   -0.7958   -5.8525    0.0000 C   0  0
   -1.7570   -4.7010    0.0000 C   0  0
   -1.2404   -3.2927    0.0000 C   0  0
   -2.0096   -2.3716    0.0000 Cl  0  0
    2.3810   -3.9822    0.0000 Cl  0  0
  1  2  2  0
  1  6  1  0
  2  3  1  0
  2 14  1  0
  3  4  2  0
  4  5  1  0
  4  7  1  0
  5  6  2  0
  5 11  1  0
  7  8  2  0
  7 12  1  0
  8  9  1  0
  9 10  1  0
 10 11  1  0
 10 13  2  0
 12 15  2  0
 12 19  1  0
 15 16  1  0
 15 21  1  0
 16 17  2  0
 17 18  1  0
 18 19  2  0
 19 20  1  0
M  END
> <Name>
Ro22-3294

> <Family>
A.1

> <IC50_uM>
0.007000

> <set>
0

$$$$
Ro07-5220
  SciTegic05270810122D

 22 24  0  0  0  0            999 V2000
   -2.8265    0.7721    0.0000 C   0  0
   -2.8207   -0.7526    0.0000 C   0  0
   -1.4746   -1.5097    0.0000 C   0  0
    0.0108   -0.7417    0.0000 C   0  0
    0.0050    0.7829    0.0000 C   0  0
   -1.4863    1.5396    0.0000 C   0  0
    0.7584   -1.6282    0.0000 C   0  0
    2.2458   -1.3866    0.0000 N   0  0
    2.9483    0.0319    0.0000 C   0  0
    2.2532    1.4268    0.0000 C   0  0
    0.7819    1.7116    0.0000 N   0  0
    0.2374   -3.0356    0.0000 C   0  0
    2.9793    2.3822    0.0000 O   0  0
   -3.8554   -1.3604    0.0000 Cl  0  0
    1.1987   -4.1875    0.0000 C   0  0
    0.6821   -5.5958    0.0000 C   0  0
   -0.7958   -5.8525    0.0000 C   0  0
   -1.7570   -4.7010    0.0000 C   0  0
   -1.2404   -3.2927    0.0000 C   0  0
   -2.0096   -2.3716    0.0000 Cl  0  0
    2.3810   -3.9822    0.0000 Cl  0  0
    0.3801    2.8423    0.0000 C   0  0
  1  2  2  0
  1  6  1  0
  2  3  1  0
  2 14  1  0
  3  4  2  0
  4  5  1  0
  4  7  1  0
  5  6  2  0
  5 11  1  0
  7  8  2  0
  7 12  1  0
  8  9  1  0
  9 10  1  0
 10 11  1  0
 10 13  2  0
 11 22  1  0
 12 15  2  0
 12 19  1  0
 15 16  1  0
 15 21  1  0
 16 17  2  0
 17 18  1  0
 18 19  2  0
 19 20  1  0
M  END
> <Name>
Ro07-5220

> <Family>
A.1

> <IC50_uM>
0.005500

> <set>
0

$$$$
Ro13-3780
  SciTegic05270810122D

 22 24  0  0  0  0            999 V2000
   -2.8265    0.7721    0.0000 C   0  0
   -2.8207   -0.7526    0.0000 C   0  0
   -1.4746   -1.5097    0.0000 C   0  0
    0.0108   -0.7417    0.0000 C   0  0
    0.0050    0.7829    0.0000 C   0  0
   -1.4863    1.5396    0.0000 C   0  0
    0.7584   -1.6282    0.0000 C   0  0
    2.2458   -1.3866    0.0000 N   0  0
    2.9483    0.0319    0.0000 C   0  0
    2.2532    1.4268    0.0000 C   0  0
    0.7819    1.7116    0.0000 N   0  0
    0.2374   -3.0356    0.0000 C   0  0
    2.9793    2.3822    0.0000 O   0  0
   -3.8554   -1.3604    0.0000 Br  0  0
    1.1987   -4.1875    0.0000 C   0  0
    0.6821   -5.5958    0.0000 C   0  0
   -0.7958   -5.8525    0.0000 C   0  0
   -1.7570   -4.7010    0.0000 C   0  0
   -1.2404   -3.2927    0.0000 C   0  0
   -2.0096   -2.3716    0.0000 F   0  0
    2.3810   -3.9822    0.0000 F   0  0
    0.3801    2.8423    0.0000 C   0  0
  1  2  2  0
  1  6  1  0
  2  3  1  0
  2 14  1  0
  3  4  2  0
  4  5  1  0
  4  7  1  0
  5  6  2  0
  5 11  1  0
  7  8  2  0
  7 12  1  0
  8  9  1  0
  9 10  1  0
 10 11  1  0
 10 13  2  0
 11 22  1  0
 12 15  2  0
 12 19  1  0
 15 16  1  0
 15 21  1  0
 16 17  2  0
 17 18  1  0
 18 19  2  0
 19 20  1  0
M  END
> <Name>
Ro13-3780

> <Family>
A.1

> <IC50_uM>
0.002400

> <set>
0

$$$$
Ro07-9957
  SciTegic05270810122D

 21 23  0  0  0  0            999 V2000
   -2.8265    0.7721    0.0000 C   0  0
   -2.8207   -0.7526    0.0000 C   0  0
   -1.4746   -1.5097    0.0000 C   0  0
    0.0108   -0.7417    0.0000 C   0  0
    0.0050    0.7829    0.0000 C   0  0
   -1.4863    1.5396    0.0000 C   0  0
    0.7584   -1.6282    0.0000 C   0  0
    2.2458   -1.3866    0.0000 N   0  0
    2.9483    0.0319    0.0000 C   0  0
    2.2532    1.4268    0.0000 C   0  0
    0.7819    1.7116    0.0000 N   0  0
    0.2374   -3.0356    0.0000 C   0  0
    2.9793    2.3822    0.0000 O   0  0
   -3.8554   -1.3604    0.0000 I   0  0
   -1.2404   -3.2927    0.0000 C   0  0
   -1.7570   -4.7010    0.0000 C   0  0
   -0.7958   -5.8525    0.0000 C   0  0
    0.6821   -5.5958    0.0000 C   0  0
    1.1987   -4.1875    0.0000 C   0  0
    2.3810   -3.9822    0.0000 F   0  0
    0.3801    2.8423    0.0000 C   0  0
  1  2  2  0
  1  6  1  0
  2  3  1  0
  2 14  1  0
  3  4  2  0
  4  5  1  0
  4  7  1  0
  5  6  2  0
  5 11  1  0
  7  8  2  0
  7 12  1  0
  8  9  1  0
  9 10  1  0
 10 11  1  0
 10 13  2  0
 11 21  1  0
 12 15  2  0
 12 19  1  0
 15 16  1  0
 16 17  2  0
 17 18  1  0
 18 19  2  0
 19 20  1  0
M  END
> <Name>
Ro07-9957

> <Family>
A.1

> <IC50_uM>
0.002900

> <set>
0

$$$$
Ro05-2904
  SciTegic05270810122D

 22 24  0  0  0  0            999 V2000
   -2.8265    0.7721    0.0000 C   0  0
   -2.8207   -0.7526    0.0000 C   0  0
   -1.4746   -1.5097    0.0000 C   0  0
    0.0108   -0.7417    0.0000 C   0  0
    0.0050    0.7829    0.0000 C   0  0
   -1.4863    1.5396    0.0000 C   0  0
    0.7584   -1.6282    0.0000 C   0  0
    2.2458   -1.3866    0.0000 N   0  0
    2.9483    0.0319    0.0000 C   0  0
    2.2532    1.4268    0.0000 C   0  0
    0.7819    1.7116    0.0000 N   0  0
    0.2374   -3.0356    0.0000 C   0  0
    2.9793    2.3822    0.0000 O   0  0
    1.1987   -4.1875    0.0000 C   0  0
    0.6821   -5.5958    0.0000 C   0  0
   -0.7958   -5.8525    0.0000 C   0  0
   -1.7570   -4.7010    0.0000 C   0  0
   -1.2404   -3.2927    0.0000 C   0  0
   -4.1170   -1.5080    0.0000 C   0  0
   -5.1590   -0.9129    0.0000 F   0  0
   -4.1118   -2.7080    0.0000 F   0  0
   -5.1535   -2.1127    0.0000 F   0  0
  1  2  2  0
  1  6  1  0
  2  3  1  0
  2 19  1  0
  3  4  2  0
  4  5  1  0
  4  7  1  0
  5  6  2  0
  5 11  1  0
  7  8  2  0
  7 12  1  0
  8  9  1  0
  9 10  1  0
 10 11  1  0
 10 13  2  0
 12 14  2  0
 12 18  1  0
 14 15  1  0
 15 16  2  0
 16 17  1  0
 17 18  2  0
 19 20  1  0
 19 21  1  0
 19 22  1  0
M  END
> <Name>
Ro05-2904

> <Family>
A.1

> <IC50_uM>
0.013000

> <set>
1

$$$$
Ro14-3074
  SciTegic05270810122D

 22 24  0  0  0  0            999 V2000
   -2.8265    0.7721    0.0000 C   0  0
   -2.8207   -0.7526    0.0000 C   0  0
   -1.4746   -1.5097    0.0000 C   0  0
    0.0108   -0.7417    0.0000 C   0  0
    0.0050    0.7829    0.0000 C   0  0
   -1.4863    1.5396    0.0000 C   0  0
    0.7584   -1.6282    0.0000 C   0  0
    2.2458   -1.3866    0.0000 N   0  0
    2.9483    0.0319    0.0000 C   0  0
    2.2532    1.4268    0.0000 C   0  0
    0.7819    1.7116    0.0000 N   0  0
    0.2374   -3.0356    0.0000 C   0  0
    2.9793    2.3822    0.0000 O   0  0
   -1.2404   -3.2927    0.0000 C   0  0
   -1.7570   -4.7010    0.0000 C   0  0
   -0.7958   -5.8525    0.0000 C   0  0
    0.6821   -5.5958    0.0000 C   0  0
    1.1987   -4.1875    0.0000 C   0  0
    2.3810   -3.9822    0.0000 F   0  0
   -4.1154   -1.5107    0.0000 N   0  0
   -4.1073   -3.0115    0.0000 N   0  3
   -4.1008   -4.2115    0.0000 N   0  5
  1  2  2  0
  1  6  1  0
  2  3  1  0
  2 20  1  0
  3  4  2  0
  4  5  1  0
  4  7  1  0
  5  6  2  0
  5 11  1  0
  7  8  2  0
  7 12  1  0
  8  9  1  0
  9 10  1  0
 10 11  1  0
 10 13  2  0
 12 14  2  0
 12 18  1  0
 14 15  1  0
 15 16  2  0
 16 17  1  0
 17 18  2  0
 18 19  1  0
 20 21  2  0
 21 22  2  0
M  CHG  2  21   1  22  -1
M  END
> <Name>
Ro14-3074

> <Family>
A.1

> <IC50_uM>
0.005300

> <set>
1

$$$$
Nitrazepam
  SciTegic05270810122D

 21 23  0  0  0  0            999 V2000
   -2.8265    0.7721    0.0000 C   0  0
   -2.8207   -0.7526    0.0000 C   0  0
   -1.4746   -1.5097    0.0000 C   0  0
    0.0108   -0.7417    0.0000 C   0  0
    0.0050    0.7829    0.0000 C   0  0
   -1.4863    1.5396    0.0000 C   0  0
    0.7584   -1.6282    0.0000 C   0  0
    2.2458   -1.3866    0.0000 N   0  0
    2.9483    0.0319    0.0000 C   0  0
    2.2532    1.4268    0.0000 C   0  0
    0.7819    1.7116    0.0000 N   0  0
    0.2374   -3.0356    0.0000 C   0  0
    2.9793    2.3822    0.0000 O   0  0
    1.1987   -4.1875    0.0000 C   0  0
    0.6821   -5.5958    0.0000 C   0  0
   -0.7958   -5.8525    0.0000 C   0  0
   -1.7570   -4.7010    0.0000 C   0  0
   -1.2404   -3.2927    0.0000 C   0  0
   -4.1154   -1.5107    0.0000 N   0  3
   -4.1089   -2.7107    0.0000 O   0  0
   -5.1581   -0.9167    0.0000 O   0  5
  1  2  2  0
  1  6  1  0
  2  3  1  0
  2 19  1  0
  3  4  2  0
  4  5  1  0
  4  7  1  0
  5  6  2  0
  5 11  1  0
  7  8  2  0
  7 12  1  0
  8  9  1  0
  9 10  1  0
 10 11  1  0
 10 13  2  0
 12 14  2  0
 12 18  1  0
 14 15  1  0
 15 16  2  0
 16 17  1  0
 17 18  2  0
 19 20  2  0
 19 21  1  0
M  CHG  2  19   1  21  -1
M  END
> <Name>
Nitrazepam

> <Family>
A.1

> <IC50_uM>
0.010000

> <set>
2

$$$$
Ro05-4435
  SciTegic05270810122D

 22 24  0  0  0  0            999 V2000
   -2.8265    0.7721    0.0000 C   0  0
   -2.8207   -0.7526    0.0000 C   0  0
   -1.4746   -1.5097    0.0000 C   0  0
    0.0108   -0.7417    0.0000 C   0  0
    0.0050    0.7829    0.0000 C   0  0
   -1.4863    1.5396    0.0000 C   0  0
    0.7584   -1.6282    0.0000 C   0  0
    2.2458   -1.3866    0.0000 N   0  0
    2.9483    0.0319    0.0000 C   0  0
    2.2532    1.4268    0.0000 C   0  0
    0.7819    1.7116    0.0000 N   0  0
    0.2374   -3.0356    0.0000 C   0  0
    2.9793    2.3822    0.0000 O   0  0
   -1.2404   -3.2927    0.0000 C   0  0
   -1.7570   -4.7010    0.0000 C   0  0
   -0.7958   -5.8525    0.0000 C   0  0
    0.6821   -5.5958    0.0000 C   0  0
    1.1987   -4.1875    0.0000 C   0  0
   -4.1154   -1.5107    0.0000 N   0  3
   -4.1089   -2.7107    0.0000 O   0  0
   -5.1581   -0.9167    0.0000 O   0  5
    2.3810   -3.9822    0.0000 F   0  0
  1  2  2  0
  1  6  1  0
  2  3  1  0
  2 19  1  0
  3  4  2  0
  4  5  1  0
  4  7  1  0
  5  6  2  0
  5 11  1  0
  7  8  2  0
  7 12  1  0
  8  9  1  0
  9 10  1  0
 10 11  1  0
 10 13  2  0
 12 14  2  0
 12 18  1  0
 14 15  1  0
 15 16  2  0
 16 17  1  0
 17 18  2  0
 18 22  1  0
 19 20  2  0
 19 21  1  0
M  CHG  2  19   1  21  -1
M  END
> <Name>
Ro05-4435

> <Family>
A.1

> <IC50_uM>
0.001500

> <set>
2

$$$$
Flunitrazepam
  SciTegic05270810122D

 23 25  0  0  0  0            999 V2000
   -2.8265    0.7721    0.0000 C   0  0
   -2.8207   -0.7526    0.0000 C   0  0
   -1.4746   -1.5097    0.0000 C   0  0
    0.0108   -0.7417    0.0000 C   0  0
    0.0050    0.7829    0.0000 C   0  0
   -1.4863    1.5396    0.0000 C   0  0
    0.7584   -1.6282    0.0000 C   0  0
    2.2458   -1.3866    0.0000 N   0  0
    2.9483    0.0319    0.0000 C   0  0
    2.2532    1.4268    0.0000 C   0  0
    0.7819    1.7116    0.0000 N   0  0
    0.2374   -3.0356    0.0000 C   0  0
    2.9793    2.3822    0.0000 O   0  0
   -1.2404   -3.2927    0.0000 C   0  0
   -1.7570   -4.7010    0.0000 C   0  0
   -0.7958   -5.8525    0.0000 C   0  0
    0.6821   -5.5958    0.0000 C   0  0
    1.1987   -4.1875    0.0000 C   0  0
   -4.1154   -1.5107    0.0000 N   0  3
   -4.1089   -2.7107    0.0000 O   0  0
   -5.1581   -0.9167    0.0000 O   0  5
    2.3810   -3.9822    0.0000 F   0  0
    0.3801    2.8423    0.0000 C   0  0
  1  2  2  0
  1  6  1  0
  2  3  1  0
  2 19  1  0
  3  4  2  0
  4  5  1  0
  4  7  1  0
  5  6  2  0
  5 11  1  0
  7  8  2  0
  7 12  1  0
  8  9  1  0
  9 10  1  0
 10 11  1  0
 10 13  2  0
 11 23  1  0
 12 14  2  0
 12 18  1  0
 14 15  1  0
 15 16  2  0
 16 17  1  0
 17 18  2  0
 18 22  1  0
 19 20  2  0
 19 21  1  0
M  CHG  2  19   1  21  -1
M  END
> <Name>
Flunitrazepam

> <Family>
A.1

> <IC50_uM>
0.003800

> <set>
1

$$$$
Clonazepam
  SciTegic05270810122D

 22 24  0  0  0  0            999 V2000
   -2.8265    0.7721    0.0000 C   0  0
   -2.8207   -0.7526    0.0000 C   0  0
   -1.4746   -1.5097    0.0000 C   0  0
    0.0108   -0.7417    0.0000 C   0  0
    0.0050    0.7829    0.0000 C   0  0
   -1.4863    1.5396    0.0000 C   0  0
    0.7584   -1.6282    0.0000 C   0  0
    2.2458   -1.3866    0.0000 N   0  0
    2.9483    0.0319    0.0000 C   0  0
    2.2532    1.4268    0.0000 C   0  0
    0.7819    1.7116    0.0000 N   0  0
    0.2374   -3.0356    0.0000 C   0  0
    2.9793    2.3822    0.0000 O   0  0
   -1.2404   -3.2927    0.0000 C   0  0
   -1.7570   -4.7010    0.0000 C   0  0
   -0.7958   -5.8525    0.0000 C   0  0
    0.6821   -5.5958    0.0000 C   0  0
    1.1987   -4.1875    0.0000 C   0  0
   -4.1154   -1.5107    0.0000 N   0  3
   -4.1089   -2.7107    0.0000 O   0  0
   -5.1581   -0.9167    0.0000 O   0  5
    2.3810   -3.9822    0.0000 Cl  0  0
  1  2  2  0
  1  6  1  0
  2  3  1  0
  2 19  1  0
  3  4  2  0
  4  5  1  0
  4  7  1  0
  5  6  2  0
  5 11  1  0
  7  8  2  0
  7 12  1  0
  8  9  1  0
  9 10  1  0
 10 11  1  0
 10 13  2  0
 12 14  2  0
 12 18  1  0
 14 15  1  0
 15 16  2  0
 16 17  1  0
 17 18  2  0
 18 22  1  0
 19 20  2  0
 19 21  1  0
M  CHG  2  19   1  21  -1
M  END
> <Name>
Clonazepam

> <Family>
A.1

> <IC50_uM>
0.001800

> <set>
0

$$$$
Ro05-4082
  SciTegic05270810122D

 23 25  0  0  0  0            999 V2000
   -2.8265    0.7721    0.0000 C   0  0
   -2.8207   -0.7526    0.0000 C   0  0
   -1.4746   -1.5097    0.0000 C   0  0
    0.0108   -0.7417    0.0000 C   0  0
    0.0050    0.7829    0.0000 C   0  0
   -1.4863    1.5396    0.0000 C   0  0
    0.7584   -1.6282    0.0000 C   0  0
    2.2458   -1.3866    0.0000 N   0  0
    2.9483    0.0319    0.0000 C   0  0
    2.2532    1.4268    0.0000 C   0  0
    0.7819    1.7116    0.0000 N   0  0
    0.2374   -3.0356    0.0000 C   0  0
    2.9793    2.3822    0.0000 O   0  0
   -1.2404   -3.2927    0.0000 C   0  0
   -1.7570   -4.7010    0.0000 C   0  0
   -0.7958   -5.8525    0.0000 C   0  0
    0.6821   -5.5958    0.0000 C   0  0
    1.1987   -4.1875    0.0000 C   0  0
   -4.1154   -1.5107    0.0000 N   0  3
   -4.1089   -2.7107    0.0000 O   0  0
   -5.1581   -0.9167    0.0000 O   0  5
    2.3810   -3.9822    0.0000 Cl  0  0
    0.3801    2.8423    0.0000 C   0  0
  1  2  2  0
  1  6  1  0
  2  3  1  0
  2 19  1  0
  3  4  2  0
  4  5  1  0
  4  7  1  0
  5  6  2  0
  5 11  1  0
  7  8  2  0
  7 12  1  0
  8  9  1  0
  9 10  1  0
 10 11  1  0
 10 13  2  0
 11 23  1  0
 12 14  2  0
 12 18  1  0
 14 15  1  0
 15 16  2  0
 16 17  1  0
 17 18  2  0
 18 22  1  0
 19 20  2  0
 19 21  1  0
M  CHG  2  19   1  21  -1
M  END
> <Name>
Ro05-4082

> <Family>
A.1

> <IC50_uM>
0.002200

> <set>
0

$$$$
Ro05-3590
  SciTegic05270810122D

 25 27  0  0  0  0            999 V2000
   -2.8265    0.7721    0.0000 C   0  0
   -2.8207   -0.7526    0.0000 C   0  0
   -1.4746   -1.5097    0.0000 C   0  0
    0.0108   -0.7417    0.0000 C   0  0
    0.0050    0.7829    0.0000 C   0  0
   -1.4863    1.5396    0.0000 C   0  0
    0.7584   -1.6282    0.0000 C   0  0
    2.2458   -1.3866    0.0000 N   0  0
    2.9483    0.0319    0.0000 C   0  0
    2.2532    1.4268    0.0000 C   0  0
    0.7819    1.7116    0.0000 N   0  0
    0.2374   -3.0356    0.0000 C   0  0
    2.9793    2.3822    0.0000 O   0  0
   -1.2404   -3.2927    0.0000 C   0  0
   -1.7570   -4.7010    0.0000 C   0  0
   -0.7958   -5.8525    0.0000 C   0  0
    0.6821   -5.5958    0.0000 C   0  0
    1.1987   -4.1875    0.0000 C   0  0
   -4.1154   -1.5107    0.0000 N   0  3
   -4.1089   -2.7107    0.0000 O   0  0
   -5.1581   -0.9167    0.0000 O   0  5
    2.6774   -3.9309    0.0000 C   0  0
    3.0916   -2.8046    0.0000 F   0  0
    3.4460   -4.8524    0.0000 F   0  0
    3.8598   -3.7262    0.0000 F   0  0
  1  2  2  0
  1  6  1  0
  2  3  1  0
  2 19  1  0
  3  4  2  0
  4  5  1  0
  4  7  1  0
  5  6  2  0
  5 11  1  0
  7  8  2  0
  7 12  1  0
  8  9  1  0
  9 10  1  0
 10 11  1  0
 10 13  2  0
 12 14  2  0
 12 18  1  0
 14 15  1  0
 15 16  2  0
 16 17  1  0
 17 18  2  0
 18 22  1  0
 19 20  2  0
 19 21  1  0
 22 23  1  0
 22 24  1  0
 22 25  1  0
M  CHG  2  19   1  21  -1
M  END
> <Name>
Ro05-3590

> <Family>
A.1

> <IC50_uM>
0.003500

> <set>
1

$$$$
Ro20-7736
  SciTegic05270810122D

 22 24  0  0  0  0            999 V2000
   -2.8265    0.7721    0.0000 C   0  0
   -2.8207   -0.7526    0.0000 C   0  0
   -1.4746   -1.5097    0.0000 C   0  0
    0.0108   -0.7417    0.0000 C   0  0
    0.0050    0.7829    0.0000 C   0  0
   -1.4863    1.5396    0.0000 C   0  0
    0.7584   -1.6282    0.0000 C   0  0
    2.2458   -1.3866    0.0000 N   0  0
    2.9483    0.0319    0.0000 C   0  0
    2.2532    1.4268    0.0000 C   0  0
    0.7819    1.7116    0.0000 N   0  0
    0.2374   -3.0356    0.0000 C   0  0
    2.9793    2.3822    0.0000 O   0  0
   -1.2404   -3.2927    0.0000 C   0  0
   -1.7570   -4.7010    0.0000 C   0  0
   -0.7958   -5.8525    0.0000 C   0  0
    0.6821   -5.5958    0.0000 C   0  0
    1.1987   -4.1875    0.0000 C   0  0
    0.3801    2.8423    0.0000 C   0  0
   -4.1154   -1.5107    0.0000 N   0  0
   -4.1089   -2.7107    0.0000 O   0  0
    2.3810   -3.9822    0.0000 F   0  0
  1  2  2  0
  1  6  1  0
  2  3  1  0
  2 20  1  0
  3  4  2  0
  4  5  1  0
  4  7  1  0
  5  6  2  0
  5 11  1  0
  7  8  2  0
  7 12  1  0
  8  9  1  0
  9 10  1  0
 10 11  1  0
 10 13  2  0
 11 19  1  0
 12 14  2  0
 12 18  1  0
 14 15  1  0
 15 16  2  0
 16 17  1  0
 17 18  2  0
 18 22  1  0
 20 21  1  0
M  END
> <Name>
Ro20-7736

> <Family>
A.1

> <IC50_uM>
0.096000

> <set>
1

$$$$
Ro05-3072
  SciTegic05270810122D

 19 21  0  0  0  0            999 V2000
   -2.8265    0.7721    0.0000 C   0  0
   -2.8207   -0.7526    0.0000 C   0  0
   -1.4746   -1.5097    0.0000 C   0  0
    0.0108   -0.7417    0.0000 C   0  0
    0.0050    0.7829    0.0000 C   0  0
   -1.4863    1.5396    0.0000 C   0  0
    0.7584   -1.6282    0.0000 C   0  0
    2.2458   -1.3866    0.0000 N   0  0
    2.9483    0.0319    0.0000 C   0  0
    2.2532    1.4268    0.0000 C   0  0
    0.7819    1.7116    0.0000 N   0  0
    0.2374   -3.0356    0.0000 C   0  0
    2.9793    2.3822    0.0000 O   0  0
    1.1987   -4.1875    0.0000 C   0  0
    0.6821   -5.5958    0.0000 C   0  0
   -0.7958   -5.8525    0.0000 C   0  0
   -1.7570   -4.7010    0.0000 C   0  0
   -1.2404   -3.2927    0.0000 C   0  0
   -3.8554   -1.3604    0.0000 N   0  0
  1  2  2  0
  1  6  1  0
  2  3  1  0
  2 19  1  0
  3  4  2  0
  4  5  1  0
  4  7  1  0
  5  6  2  0
  5 11  1  0
  7  8  2  0
  7 12  1  0
  8  9  1  0
  9 10  1  0
 10 11  1  0
 10 13  2  0
 12 14  2  0
 12 18  1  0
 14 15  1  0
 15 16  2  0
 16 17  1  0
 17 18  2  0
M  END
> <Name>
Ro05-3072

> <Family>
A.1

> <IC50_uM>
0.386000

> <set>
1

$$$$
Ro05-4318
  SciTegic05270810122D

 20 22  0  0  0  0            999 V2000
   -2.8265    0.7721    0.0000 C   0  0
   -2.8207   -0.7526    0.0000 C   0  0
   -1.4746   -1.5097    0.0000 C   0  0
    0.0108   -0.7417    0.0000 C   0  0
    0.0050    0.7829    0.0000 C   0  0
   -1.4863    1.5396    0.0000 C   0  0
    0.7584   -1.6282    0.0000 C   0  0
    2.2458   -1.3866    0.0000 N   0  0
    2.9483    0.0319    0.0000 C   0  0
    2.2532    1.4268    0.0000 C   0  0
    0.7819    1.7116    0.0000 N   0  0
    0.2374   -3.0356    0.0000 C   0  0
    2.9793    2.3822    0.0000 O   0  0
    1.1987   -4.1875    0.0000 C   0  0
    0.6821   -5.5958    0.0000 C   0  0
   -0.7958   -5.8525    0.0000 C   0  0
   -1.7570   -4.7010    0.0000 C   0  0
   -1.2404   -3.2927    0.0000 C   0  0
   -3.8554   -1.3604    0.0000 N   0  0
    0.3801    2.8423    0.0000 C   0  0
  1  2  2  0
  1  6  1  0
  2  3  1  0
  2 19  1  0
  3  4  2  0
  4  5  1  0
  4  7  1  0
  5  6  2  0
  5 11  1  0
  7  8  2  0
  7 12  1  0
  8  9  1  0
  9 10  1  0
 10 11  1  0
 10 13  2  0
 11 20  1  0
 12 14  2  0
 12 18  1  0
 14 15  1  0
 15 16  2  0
 16 17  1  0
 17 18  2  0
M  END
> <Name>
Ro05-4318

> <Family>
A.1

> <IC50_uM>
0.460000

> <set>
2

$$$$
Ro20-1815
  SciTegic05270810122D

 21 23  0  0  0  0            999 V2000
   -2.8265    0.7721    0.0000 C   0  0
   -2.8207   -0.7526    0.0000 C   0  0
   -1.4746   -1.5097    0.0000 C   0  0
    0.0108   -0.7417    0.0000 C   0  0
    0.0050    0.7829    0.0000 C   0  0
   -1.4863    1.5396    0.0000 C   0  0
    0.7584   -1.6282    0.0000 C   0  0
    2.2458   -1.3866    0.0000 N   0  0
    2.9483    0.0319    0.0000 C   0  0
    2.2532    1.4268    0.0000 C   0  0
    0.7819    1.7116    0.0000 N   0  0
    0.2374   -3.0356    0.0000 C   0  0
    2.9793    2.3822    0.0000 O   0  0
   -1.2404   -3.2927    0.0000 C   0  0
   -1.7570   -4.7010    0.0000 C   0  0
   -0.7958   -5.8525    0.0000 C   0  0
    0.6821   -5.5958    0.0000 C   0  0
    1.1987   -4.1875    0.0000 C   0  0
   -3.8554   -1.3604    0.0000 N   0  0
    0.3801    2.8423    0.0000 C   0  0
    2.3810   -3.9822    0.0000 F   0  0
  1  2  2  0
  1  6  1  0
  2  3  1  0
  2 19  1  0
  3  4  2  0
  4  5  1  0
  4  7  1  0
  5  6  2  0
  5 11  1  0
  7  8  2  0
  7 12  1  0
  8  9  1  0
  9 10  1  0
 10 11  1  0
 10 13  2  0
 11 20  1  0
 12 14  2  0
 12 18  1  0
 14 15  1  0
 15 16  2  0
 16 17  1  0
 17 18  2  0
 18 21  1  0
M  END
> <Name>
Ro20-1815

> <Family>
A.1

> <IC50_uM>
0.065000

> <set>
1

$$$$
Ro05-4619
  SciTegic05270810122D

 20 22  0  0  0  0            999 V2000
   -2.8265    0.7721    0.0000 C   0  0
   -2.8207   -0.7526    0.0000 C   0  0
   -1.4746   -1.5097    0.0000 C   0  0
    0.0108   -0.7417    0.0000 C   0  0
    0.0050    0.7829    0.0000 C   0  0
   -1.4863    1.5396    0.0000 C   0  0
    0.7584   -1.6282    0.0000 C   0  0
    2.2458   -1.3866    0.0000 N   0  0
    2.9483    0.0319    0.0000 C   0  0
    2.2532    1.4268    0.0000 C   0  0
    0.7819    1.7116    0.0000 N   0  0
    0.2374   -3.0356    0.0000 C   0  0
    2.9793    2.3822    0.0000 O   0  0
   -1.2404   -3.2927    0.0000 C   0  0
   -1.7570   -4.7010    0.0000 C   0  0
   -0.7958   -5.8525    0.0000 C   0  0
    0.6821   -5.5958    0.0000 C   0  0
    1.1987   -4.1875    0.0000 C   0  0
   -3.8554   -1.3604    0.0000 N   0  0
    2.3810   -3.9822    0.0000 Cl  0  0
  1  2  2  0
  1  6  1  0
  2  3  1  0
  2 19  1  0
  3  4  2  0
  4  5  1  0
  4  7  1  0
  5  6  2  0
  5 11  1  0
  7  8  2  0
  7 12  1  0
  8  9  1  0
  9 10  1  0
 10 11  1  0
 10 13  2  0
 12 14  2  0
 12 18  1  0
 14 15  1  0
 15 16  2  0
 16 17  1  0
 17 18  2  0
 18 20  1  0
M  END
> <Name>
Ro05-4619

> <Family>
A.1

> <IC50_uM>
0.075000

> <set>
1

$$$$
Ro05-3308
  SciTegic05270810122D

 22 24  0  0  0  0            999 V2000
   -2.8265    0.7721    0.0000 C   0  0
   -2.8207   -0.7526    0.0000 C   0  0
   -1.4746   -1.5097    0.0000 C   0  0
    0.0108   -0.7417    0.0000 C   0  0
    0.0050    0.7829    0.0000 C   0  0
   -1.4863    1.5396    0.0000 C   0  0
    0.7584   -1.6282    0.0000 C   0  0
    2.2458   -1.3866    0.0000 N   0  0
    2.9483    0.0319    0.0000 C   0  0
    2.2532    1.4268    0.0000 C   0  0
    0.7819    1.7116    0.0000 N   0  0
    0.2374   -3.0356    0.0000 C   0  0
    2.9793    2.3822    0.0000 O   0  0
    1.1987   -4.1875    0.0000 C   0  0
    0.6821   -5.5958    0.0000 C   0  0
   -0.7958   -5.8525    0.0000 C   0  0
   -1.7570   -4.7010    0.0000 C   0  0
   -1.2404   -3.2927    0.0000 C   0  0
   -4.1154   -1.5107    0.0000 N   0  0
   -4.1073   -3.0115    0.0000 C   0  0
   -5.1429   -3.6178    0.0000 O   0  0
   -3.0646   -3.6055    0.0000 C   0  0
  1  2  2  0
  1  6  1  0
  2  3  1  0
  2 19  1  0
  3  4  2  0
  4  5  1  0
  4  7  1  0
  5  6  2  0
  5 11  1  0
  7  8  2  0
  7 12  1  0
  8  9  1  0
  9 10  1  0
 10 11  1  0
 10 13  2  0
 12 14  2  0
 12 18  1  0
 14 15  1  0
 15 16  2  0
 16 17  1  0
 17 18  2  0
 19 20  1  0
 20 21  2  0
 20 22  1  0
M  END
> <Name>
Ro05-3308

> <Family>
A.1

> <IC50_uM>
>1

> <set>
2

$$$$
Ro12-6377
  SciTegic05270810122D

 25 27  0  0  0  0            999 V2000
   -2.8265    0.7721    0.0000 C   0  0
   -2.8207   -0.7526    0.0000 C   0  0
   -1.4746   -1.5097    0.0000 C   0  0
    0.0108   -0.7417    0.0000 C   0  0
    0.0050    0.7829    0.0000 C   0  0
   -1.4863    1.5396    0.0000 C   0  0
    0.7584   -1.6282    0.0000 C   0  0
    2.2458   -1.3866    0.0000 N   0  0
    2.9483    0.0319    0.0000 C   0  0
    2.2532    1.4268    0.0000 C   0  0
    0.7819    1.7116    0.0000 N   0  0
    0.2374   -3.0356    0.0000 C   0  0
    2.9793    2.3822    0.0000 O   0  0
   -1.2404   -3.2927    0.0000 C   0  0
   -1.7570   -4.7010    0.0000 C   0  0
   -0.7958   -5.8525    0.0000 C   0  0
    0.6821   -5.5958    0.0000 C   0  0
    1.1987   -4.1875    0.0000 C   0  0
    0.3801    2.8423    0.0000 C   0  0
    2.3810   -3.9822    0.0000 F   0  0
   -4.1154   -1.5107    0.0000 N   0  0
   -4.1073   -3.0115    0.0000 C   0  0
   -3.0646   -3.6055    0.0000 O   0  0
   -5.4025   -3.7698    0.0000 N   0  0
   -5.3960   -4.9698    0.0000 C   0  0
  1  2  2  0
  1  6  1  0
  2  3  1  0
  2 21  1  0
  3  4  2  0
  4  5  1  0
  4  7  1  0
  5  6  2  0
  5 11  1  0
  7  8  2  0
  7 12  1  0
  8  9  1  0
  9 10  1  0
 10 11  1  0
 10 13  2  0
 11 19  1  0
 12 14  2  0
 12 18  1  0
 14 15  1  0
 15 16  2  0
 16 17  1  0
 17 18  2  0
 18 20  1  0
 21 22  1  0
 22 23  2  0
 22 24  1  0
 24 25  1  0
M  END
> <Name>
Ro12-6377

> <Family>
A.1

> <IC50_uM>
0.455000

> <set>
2

$$$$
Ro05-9090
  SciTegic05270810122D

 21 23  0  0  0  0            999 V2000
   -2.8265    0.7721    0.0000 C   0  0
   -2.8207   -0.7526    0.0000 C   0  0
   -1.4746   -1.5097    0.0000 C   0  0
    0.0108   -0.7417    0.0000 C   0  0
    0.0050    0.7829    0.0000 C   0  0
   -1.4863    1.5396    0.0000 C   0  0
    0.7584   -1.6282    0.0000 C   0  0
    2.2458   -1.3866    0.0000 N   0  0
    2.9483    0.0319    0.0000 C   0  0
    2.2532    1.4268    0.0000 C   0  0
    0.7819    1.7116    0.0000 N   0  0
    0.2374   -3.0356    0.0000 C   0  0
    2.9793    2.3822    0.0000 O   0  0
    1.1987   -4.1875    0.0000 C   0  0
    0.6821   -5.5958    0.0000 C   0  0
   -0.7958   -5.8525    0.0000 C   0  0
   -1.7570   -4.7010    0.0000 C   0  0
   -1.2404   -3.2927    0.0000 C   0  0
    0.3801    2.8423    0.0000 C   0  0
   -4.1154   -1.5107    0.0000 C   0  0
   -4.1089   -2.7107    0.0000 N   0  0
  1  2  2  0
  1  6  1  0
  2  3  1  0
  2 20  1  0
  3  4  2  0
  4  5  1  0
  4  7  1  0
  5  6  2  0
  5 11  1  0
  7  8  2  0
  7 12  1  0
  8  9  1  0
  9 10  1  0
 10 11  1  0
 10 13  2  0
 11 19  1  0
 12 14  2  0
 12 18  1  0
 14 15  1  0
 15 16  2  0
 16 17  1  0
 17 18  2  0
 20 21  1  0
M  END
> <Name>
Ro05-9090

> <Family>
A.1

> <IC50_uM>
>1

> <set>
1

$$$$
Ro05-4528
  SciTegic05270810122D

 21 23  0  0  0  0            999 V2000
   -2.8265    0.7721    0.0000 C   0  0
   -2.8207   -0.7526    0.0000 C   0  0
   -1.4746   -1.5097    0.0000 C   0  0
    0.0108   -0.7417    0.0000 C   0  0
    0.0050    0.7829    0.0000 C   0  0
   -1.4863    1.5396    0.0000 C   0  0
    0.7584   -1.6282    0.0000 C   0  0
    2.2458   -1.3866    0.0000 N   0  0
    2.9483    0.0319    0.0000 C   0  0
    2.2532    1.4268    0.0000 C   0  0
    0.7819    1.7116    0.0000 N   0  0
    0.2374   -3.0356    0.0000 C   0  0
    2.9793    2.3822    0.0000 O   0  0
    1.1987   -4.1875    0.0000 C   0  0
    0.6821   -5.5958    0.0000 C   0  0
   -0.7958   -5.8525    0.0000 C   0  0
   -1.7570   -4.7010    0.0000 C   0  0
   -1.2404   -3.2927    0.0000 C   0  0
    0.3801    2.8423    0.0000 C   0  0
   -4.1170   -1.5080    0.0000 C   0  0
   -5.1538   -2.1122    0.0000 N   0  0
  1  2  2  0
  1  6  1  0
  2  3  1  0
  2 20  1  0
  3  4  2  0
  4  5  1  0
  4  7  1  0
  5  6  2  0
  5 11  1  0
  7  8  2  0
  7 12  1  0
  8  9  1  0
  9 10  1  0
 10 11  1  0
 10 13  2  0
 11 19  1  0
 12 14  2  0
 12 18  1  0
 14 15  1  0
 15 16  2  0
 16 17  1  0
 17 18  2  0
 20 21  3  0
M  END
> <Name>
Ro05-4528

> <Family>
A.1

> <IC50_uM>
0.380000

> <set>
1

$$$$
Ro20-2541
  SciTegic05270810122D

 22 24  0  0  0  0            999 V2000
   -2.8265    0.7721    0.0000 C   0  0
   -2.8207   -0.7526    0.0000 C   0  0
   -1.4746   -1.5097    0.0000 C   0  0
    0.0108   -0.7417    0.0000 C   0  0
    0.0050    0.7829    0.0000 C   0  0
   -1.4863    1.5396    0.0000 C   0  0
    0.7584   -1.6282    0.0000 C   0  0
    2.2458   -1.3866    0.0000 N   0  0
    2.9483    0.0319    0.0000 C   0  0
    2.2532    1.4268    0.0000 C   0  0
    0.7819    1.7116    0.0000 N   0  0
    0.2374   -3.0356    0.0000 C   0  0
    2.9793    2.3822    0.0000 O   0  0
   -1.2404   -3.2927    0.0000 C   0  0
   -1.7570   -4.7010    0.0000 C   0  0
   -0.7958   -5.8525    0.0000 C   0  0
    0.6821   -5.5958    0.0000 C   0  0
    1.1987   -4.1875    0.0000 C   0  0
    0.3801    2.8423    0.0000 C   0  0
   -4.1170   -1.5080    0.0000 C   0  0
   -5.1538   -2.1122    0.0000 N   0  0
    2.3810   -3.9822    0.0000 F   0  0
  1  2  2  0
  1  6  1  0
  2  3  1  0
  2 20  1  0
  3  4  2  0
  4  5  1  0
  4  7  1  0
  5  6  2  0
  5 11  1  0
  7  8  2  0
  7 12  1  0
  8  9  1  0
  9 10  1  0
 10 11  1  0
 10 13  2  0
 11 19  1  0
 12 14  2  0
 12 18  1  0
 14 15  1  0
 15 16  2  0
 16 17  1  0
 17 18  2  0
 18 22  1  0
 20 21  3  0
M  END
> <Name>
Ro20-2541

> <Family>
A.1

> <IC50_uM>
0.030000

> <set>
1

$$$$
Ro20-2533
  SciTegic05270810122D

 20 22  0  0  0  0            999 V2000
   -2.8265    0.7721    0.0000 C   0  0
   -2.8207   -0.7526    0.0000 C   0  0
   -1.4746   -1.5097    0.0000 C   0  0
    0.0108   -0.7417    0.0000 C   0  0
    0.0050    0.7829    0.0000 C   0  0
   -1.4863    1.5396    0.0000 C   0  0
    0.7584   -1.6282    0.0000 C   0  0
    2.2458   -1.3866    0.0000 N   0  0
    2.9483    0.0319    0.0000 C   0  0
    2.2532    1.4268    0.0000 C   0  0
    0.7819    1.7116    0.0000 N   0  0
    0.2374   -3.0356    0.0000 C   0  0
    2.9793    2.3822    0.0000 O   0  0
    1.1987   -4.1875    0.0000 C   0  0
    0.6821   -5.5958    0.0000 C   0  0
   -0.7958   -5.8525    0.0000 C   0  0
   -1.7570   -4.7010    0.0000 C   0  0
   -1.2404   -3.2927    0.0000 C   0  0
   -4.1089   -2.7107    0.0000 C   0  0
   -4.1154   -1.5107    0.0000 C   0  0
  1  2  2  0
  1  6  1  0
  2  3  1  0
  2 20  1  0
  3  4  2  0
  4  5  1  0
  4  7  1  0
  5  6  2  0
  5 11  1  0
  7  8  2  0
  7 12  1  0
  8  9  1  0
  9 10  1  0
 10 11  1  0
 10 13  2  0
 12 14  2  0
 12 18  1  0
 14 15  1  0
 15 16  2  0
 16 17  1  0
 17 18  2  0
 19 20  1  0
M  END
> <Name>
Ro20-2533

> <Family>
A.1

> <IC50_uM>
0.036000

> <set>
1

$$$$
Ro20-5747
  SciTegic05270810122D

 20 22  0  0  0  0            999 V2000
   -2.8265    0.7721    0.0000 C   0  0
   -2.8207   -0.7526    0.0000 C   0  0
   -1.4746   -1.5097    0.0000 C   0  0
    0.0108   -0.7417    0.0000 C   0  0
    0.0050    0.7829    0.0000 C   0  0
   -1.4863    1.5396    0.0000 C   0  0
    0.7584   -1.6282    0.0000 C   0  0
    2.2458   -1.3866    0.0000 N   0  0
    2.9483    0.0319    0.0000 C   0  0
    2.2532    1.4268    0.0000 C   0  0
    0.7819    1.7116    0.0000 N   0  0
    0.2374   -3.0356    0.0000 C   0  0
    2.9793    2.3822    0.0000 O   0  0
    1.1987   -4.1875    0.0000 C   0  0
    0.6821   -5.5958    0.0000 C   0  0
   -0.7958   -5.8525    0.0000 C   0  0
   -1.7570   -4.7010    0.0000 C   0  0
   -1.2404   -3.2927    0.0000 C   0  0
   -4.1154   -1.5107    0.0000 C   0  0
   -4.1089   -2.7107    0.0000 C   0  0
  1  2  2  0
  1  6  1  0
  2  3  1  0
  2 19  1  0
  3  4  2  0
  4  5  1  0
  4  7  1  0
  5  6  2  0
  5 11  1  0
  7  8  2  0
  7 12  1  0
  8  9  1  0
  9 10  1  0
 10 11  1  0
 10 13  2  0
 12 14  2  0
 12 18  1  0
 14 15  1  0
 15 16  2  0
 16 17  1  0
 17 18  2  0
 19 20  2  0
M  END
> <Name>
Ro20-5747

> <Family>
A.1

> <IC50_uM>
0.024000

> <set>
1

$$$$
Ro20-5397
  SciTegic05270810122D

 20 22  0  0  0  0            999 V2000
   -2.8265    0.7721    0.0000 C   0  0
   -2.8207   -0.7526    0.0000 C   0  0
   -1.4746   -1.5097    0.0000 C   0  0
    0.0108   -0.7417    0.0000 C   0  0
    0.0050    0.7829    0.0000 C   0  0
   -1.4863    1.5396    0.0000 C   0  0
    0.7584   -1.6282    0.0000 C   0  0
    2.2458   -1.3866    0.0000 N   0  0
    2.9483    0.0319    0.0000 C   0  0
    2.2532    1.4268    0.0000 C   0  0
    0.7819    1.7116    0.0000 N   0  0
    0.2374   -3.0356    0.0000 C   0  0
    2.9793    2.3822    0.0000 O   0  0
    1.1987   -4.1875    0.0000 C   0  0
    0.6821   -5.5958    0.0000 C   0  0
   -0.7958   -5.8525    0.0000 C   0  0
   -1.7570   -4.7010    0.0000 C   0  0
   -1.2404   -3.2927    0.0000 C   0  0
   -4.1154   -1.5107    0.0000 C   0  0
   -4.1089   -2.7107    0.0000 O   0  0
  1  2  2  0
  1  6  1  0
  2  3  1  0
  2 19  1  0
  3  4  2  0
  4  5  1  0
  4  7  1  0
  5  6  2  0
  5 11  1  0
  7  8  2  0
  7 12  1  0
  8  9  1  0
  9 10  1  0
 10 11  1  0
 10 13  2  0
 12 14  2  0
 12 18  1  0
 14 15  1  0
 15 16  2  0
 16 17  1  0
 17 18  2  0
 19 20  2  0
M  END
> <Name>
Ro20-5397

> <Family>
A.1

> <IC50_uM>
0.043000

> <set>
2

$$$$
Ro20-3053
  SciTegic05270810122D

 22 24  0  0  0  0            999 V2000
   -2.8265    0.7721    0.0000 C   0  0
   -2.8207   -0.7526    0.0000 C   0  0
   -1.4746   -1.5097    0.0000 C   0  0
    0.0108   -0.7417    0.0000 C   0  0
    0.0050    0.7829    0.0000 C   0  0
   -1.4863    1.5396    0.0000 C   0  0
    0.7584   -1.6282    0.0000 C   0  0
    2.2458   -1.3866    0.0000 N   0  0
    2.9483    0.0319    0.0000 C   0  0
    2.2532    1.4268    0.0000 C   0  0
    0.7819    1.7116    0.0000 N   0  0
    0.2374   -3.0356    0.0000 C   0  0
    2.9793    2.3822    0.0000 O   0  0
   -1.2404   -3.2927    0.0000 C   0  0
   -1.7570   -4.7010    0.0000 C   0  0
   -0.7958   -5.8525    0.0000 C   0  0
    0.6821   -5.5958    0.0000 C   0  0
    1.1987   -4.1875    0.0000 C   0  0
    2.3810   -3.9822    0.0000 F   0  0
   -4.1154   -1.5107    0.0000 C   0  0
   -4.1089   -2.7107    0.0000 O   0  0
   -5.1581   -0.9167    0.0000 C   0  0
  1  2  2  0
  1  6  1  0
  2  3  1  0
  2 20  1  0
  3  4  2  0
  4  5  1  0
  4  7  1  0
  5  6  2  0
  5 11  1  0
  7  8  2  0
  7 12  1  0
  8  9  1  0
  9 10  1  0
 10 11  1  0
 10 13  2  0
 12 14  2  0
 12 18  1  0
 14 15  1  0
 15 16  2  0
 16 17  1  0
 17 18  2  0
 18 19  1  0
 20 21  2  0
 20 22  1  0
M  END
> <Name>
Ro20-3053

> <Family>
A.1

> <IC50_uM>
0.018000

> <set>
1

$$$$
Ro05-3343
  SciTegic05270810122D

 24 26  0  0  0  0            999 V2000
   -2.8265    0.7721    0.0000 C   0  0
   -2.8207   -0.7526    0.0000 C   0  0
   -1.4746   -1.5097    0.0000 C   0  0
    0.0108   -0.7417    0.0000 C   0  0
    0.0050    0.7829    0.0000 C   0  0
   -1.4863    1.5396    0.0000 C   0  0
    0.7584   -1.6282    0.0000 C   0  0
    2.2458   -1.3866    0.0000 N   0  0
    2.9483    0.0319    0.0000 C   0  0
    2.2532    1.4268    0.0000 C   0  0
    0.7819    1.7116    0.0000 N   0  0
    0.2374   -3.0356    0.0000 C   0  0
    2.9793    2.3822    0.0000 O   0  0
    1.1987   -4.1875    0.0000 C   0  0
    0.6821   -5.5958    0.0000 C   0  0
   -0.7958   -5.8525    0.0000 C   0  0
   -1.7570   -4.7010    0.0000 C   0  0
   -1.2404   -3.2927    0.0000 C   0  0
   -4.1170   -1.5080    0.0000 S   0  0
   -4.1118   -2.7080    0.0000 O   0  0
   -5.1535   -2.1127    0.0000 O   0  0
   -5.4202   -0.7637    0.0000 N   0  0
   -6.4570   -1.3678    0.0000 C   0  0
   -5.4254    0.4363    0.0000 C   0  0
  1  2  2  0
  1  6  1  0
  2  3  1  0
  2 19  1  0
  3  4  2  0
  4  5  1  0
  4  7  1  0
  5  6  2  0
  5 11  1  0
  7  8  2  0
  7 12  1  0
  8  9  1  0
  9 10  1  0
 10 11  1  0
 10 13  2  0
 12 14  2  0
 12 18  1  0
 14 15  1  0
 15 16  2  0
 16 17  1  0
 17 18  2  0
 19 20  2  0
 19 21  2  0
 19 22  1  0
 22 23  1  0
 22 24  1  0
M  END
> <Name>
Ro05-3343

> <Family>
A.1

> <IC50_uM>
>1

> <set>
2

$$$$
Ro05-2921
  SciTegic05270810122D

 18 20  0  0  0  0            999 V2000
   -2.8265    0.7721    0.0000 C   0  0
   -2.8207   -0.7526    0.0000 C   0  0
   -1.4746   -1.5097    0.0000 C   0  0
    0.0108   -0.7417    0.0000 C   0  0
    0.0050    0.7829    0.0000 C   0  0
   -1.4863    1.5396    0.0000 C   0  0
    0.7584   -1.6282    0.0000 C   0  0
    2.2458   -1.3866    0.0000 N   0  0
    2.9483    0.0319    0.0000 C   0  0
    2.2532    1.4268    0.0000 C   0  0
    0.7819    1.7116    0.0000 N   0  0
    0.2374   -3.0356    0.0000 C   0  0
    2.9793    2.3822    0.0000 O   0  0
    1.1987   -4.1875    0.0000 C   0  0
    0.6821   -5.5958    0.0000 C   0  0
   -0.7958   -5.8525    0.0000 C   0  0
   -1.7570   -4.7010    0.0000 C   0  0
   -1.2404   -3.2927    0.0000 C   0  0
  1  2  2  0
  1  6  1  0
  2  3  1  0
  3  4  2  0
  4  5  1  0
  4  7  1  0
  5  6  2  0
  5 11  1  0
  7  8  2  0
  7 12  1  0
  8  9  1  0
  9 10  1  0
 10 11  1  0
 10 13  2  0
 12 14  2  0
 12 18  1  0
 14 15  1  0
 15 16  2  0
 16 17  1  0
 17 18  2  0
M  END
> <Name>
Ro05-2921

> <Family>
A.1

> <IC50_uM>
0.350000

> <set>
1

$$$$
Ro05-4336
  SciTegic05270810122D

 19 21  0  0  0  0            999 V2000
   -2.8265    0.7721    0.0000 C   0  0
   -2.8207   -0.7526    0.0000 C   0  0
   -1.4746   -1.5097    0.0000 C   0  0
    0.0108   -0.7417    0.0000 C   0  0
    0.0050    0.7829    0.0000 C   0  0
   -1.4863    1.5396    0.0000 C   0  0
    0.7584   -1.6282    0.0000 C   0  0
    2.2458   -1.3866    0.0000 N   0  0
    2.9483    0.0319    0.0000 C   0  0
    2.2532    1.4268    0.0000 C   0  0
    0.7819    1.7116    0.0000 N   0  0
    0.2374   -3.0356    0.0000 C   0  0
    2.9793    2.3822    0.0000 O   0  0
   -1.2404   -3.2927    0.0000 C   0  0
   -1.7570   -4.7010    0.0000 C   0  0
   -0.7958   -5.8525    0.0000 C   0  0
    0.6821   -5.5958    0.0000 C   0  0
    1.1987   -4.1875    0.0000 C   0  0
    2.3810   -3.9822    0.0000 F   0  0
  1  2  2  0
  1  6  1  0
  2  3  1  0
  3  4  2  0
  4  5  1  0
  4  7  1  0
  5  6  2  0
  5 11  1  0
  7  8  2  0
  7 12  1  0
  8  9  1  0
  9 10  1  0
 10 11  1  0
 10 13  2  0
 12 14  2  0
 12 18  1  0
 14 15  1  0
 15 16  2  0
 16 17  1  0
 17 18  2  0
 18 19  1  0
M  END
> <Name>
Ro05-4336

> <Family>
A.1

> <IC50_uM>
0.021000

> <set>
0

$$$$
Ro07-4419
  SciTegic05270810122D

 20 22  0  0  0  0            999 V2000
   -2.8265    0.7721    0.0000 C   0  0
   -2.8207   -0.7526    0.0000 C   0  0
   -1.4746   -1.5097    0.0000 C   0  0
    0.0108   -0.7417    0.0000 C   0  0
    0.0050    0.7829    0.0000 C   0  0
   -1.4863    1.5396    0.0000 C   0  0
    0.7584   -1.6282    0.0000 C   0  0
    2.2458   -1.3866    0.0000 N   0  0
    2.9483    0.0319    0.0000 C   0  0
    2.2532    1.4268    0.0000 C   0  0
    0.7819    1.7116    0.0000 N   0  0
    0.2374   -3.0356    0.0000 C   0  0
    2.9793    2.3822    0.0000 O   0  0
    1.1987   -4.1875    0.0000 C   0  0
    0.6821   -5.5958    0.0000 C   0  0
   -0.7958   -5.8525    0.0000 C   0  0
   -1.7570   -4.7010    0.0000 C   0  0
   -1.2404   -3.2927    0.0000 C   0  0
   -2.0096   -2.3716    0.0000 F   0  0
    2.3810   -3.9822    0.0000 F   0  0
  1  2  2  0
  1  6  1  0
  2  3  1  0
  3  4  2  0
  4  5  1  0
  4  7  1  0
  5  6  2  0
  5 11  1  0
  7  8  2  0
  7 12  1  0
  8  9  1  0
  9 10  1  0
 10 11  1  0
 10 13  2  0
 12 14  2  0
 12 18  1  0
 14 15  1  0
 14 20  1  0
 15 16  2  0
 16 17  1  0
 17 18  2  0
 18 19  1  0
M  END
> <Name>
Ro07-4419

> <Family>
A.1

> <IC50_uM>
0.019000

> <set>
1

$$$$
Ro05-4520
  SciTegic05270810122D

 20 22  0  0  0  0            999 V2000
   -2.8265    0.7721    0.0000 C   0  0
   -2.8207   -0.7526    0.0000 C   0  0
   -1.4746   -1.5097    0.0000 C   0  0
    0.0108   -0.7417    0.0000 C   0  0
    0.0050    0.7829    0.0000 C   0  0
   -1.4863    1.5396    0.0000 C   0  0
    0.7584   -1.6282    0.0000 C   0  0
    2.2458   -1.3866    0.0000 N   0  0
    2.9483    0.0319    0.0000 C   0  0
    2.2532    1.4268    0.0000 C   0  0
    0.7819    1.7116    0.0000 N   0  0
    0.2374   -3.0356    0.0000 C   0  0
    2.9793    2.3822    0.0000 O   0  0
   -1.2404   -3.2927    0.0000 C   0  0
   -1.7570   -4.7010    0.0000 C   0  0
   -0.7958   -5.8525    0.0000 C   0  0
    0.6821   -5.5958    0.0000 C   0  0
    1.1987   -4.1875    0.0000 C   0  0
    2.3810   -3.9822    0.0000 F   0  0
    0.3801    2.8423    0.0000 C   0  0
  1  2  2  0
  1  6  1  0
  2  3  1  0
  3  4  2  0
  4  5  1  0
  4  7  1  0
  5  6  2  0
  5 11  1  0
  7  8  2  0
  7 12  1  0
  8  9  1  0
  9 10  1  0
 10 11  1  0
 10 13  2  0
 11 20  1  0
 12 14  2  0
 12 18  1  0
 14 15  1  0
 15 16  2  0
 16 17  1  0
 17 18  2  0
 18 19  1  0
M  END
> <Name>
Ro05-4520

> <Family>
A.1

> <IC50_uM>
0.014000

> <set>
1

$$$$
Ro05-4608
  SciTegic05270810122D

 20 22  0  0  0  0            999 V2000
   -2.8265    0.7721    0.0000 C   0  0
   -2.8207   -0.7526    0.0000 C   0  0
   -1.4746   -1.5097    0.0000 C   0  0
    0.0108   -0.7417    0.0000 C   0  0
    0.0050    0.7829    0.0000 C   0  0
   -1.4863    1.5396    0.0000 C   0  0
    0.7584   -1.6282    0.0000 C   0  0
    2.2458   -1.3866    0.0000 N   0  0
    2.9483    0.0319    0.0000 C   0  0
    2.2532    1.4268    0.0000 C   0  0
    0.7819    1.7116    0.0000 N   0  0
    0.2374   -3.0356    0.0000 C   0  0
    2.9793    2.3822    0.0000 O   0  0
   -1.2404   -3.2927    0.0000 C   0  0
   -1.7570   -4.7010    0.0000 C   0  0
   -0.7958   -5.8525    0.0000 C   0  0
    0.6821   -5.5958    0.0000 C   0  0
    1.1987   -4.1875    0.0000 C   0  0
    2.3810   -3.9822    0.0000 Cl  0  0
    0.3801    2.8423    0.0000 C   0  0
  1  2  2  0
  1  6  1  0
  2  3  1  0
  3  4  2  0
  4  5  1  0
  4  7  1  0
  5  6  2  0
  5 11  1  0
  7  8  2  0
  7 12  1  0
  8  9  1  0
  9 10  1  0
 10 11  1  0
 10 13  2  0
 11 20  1  0
 12 14  2  0
 12 18  1  0
 14 15  1  0
 15 16  2  0
 16 17  1  0
 17 18  2  0
 18 19  1  0
M  END
> <Name>
Ro05-4608

> <Family>
A.1

> <IC50_uM>
0.003800

> <set>
0

$$$$
Ro05-3546
  SciTegic05270810122D

 19 21  0  0  0  0            999 V2000
   -2.8265    0.7721    0.0000 C   0  0
   -2.8207   -0.7526    0.0000 C   0  0
   -1.4746   -1.5097    0.0000 C   0  0
    0.0108   -0.7417    0.0000 C   0  0
    0.0050    0.7829    0.0000 C   0  0
   -1.4863    1.5396    0.0000 C   0  0
    0.7584   -1.6282    0.0000 C   0  0
    2.2458   -1.3866    0.0000 N   0  0
    2.9483    0.0319    0.0000 C   0  0
    2.2532    1.4268    0.0000 C   0  0
    0.7819    1.7116    0.0000 N   0  0
    0.2374   -3.0356    0.0000 C   0  0
    2.9793    2.3822    0.0000 O   0  0
    1.1987   -4.1875    0.0000 C   0  0
    0.6821   -5.5958    0.0000 C   0  0
   -0.7958   -5.8525    0.0000 C   0  0
   -1.7570   -4.7010    0.0000 C   0  0
   -1.2404   -3.2927    0.0000 C   0  0
   -1.4957   -2.7095    0.0000 Cl  0  0
  1  2  2  0
  1  6  1  0
  2  3  1  0
  3  4  2  0
  3 19  1  0
  4  5  1  0
  4  7  1  0
  5  6  2  0
  5 11  1  0
  7  8  2  0
  7 12  1  0
  8  9  1  0
  9 10  1  0
 10 11  1  0
 10 13  2  0
 12 14  2  0
 12 18  1  0
 14 15  1  0
 15 16  2  0
 16 17  1  0
 17 18  2  0
M  END
> <Name>
Ro05-3546

> <Family>
A.1

> <IC50_uM>
0.320000

> <set>
0

$$$$
Ro13-0699
  SciTegic05270810122D

 21 23  0  0  0  0            999 V2000
   -2.8265    0.7721    0.0000 C   0  0
   -2.8207   -0.7526    0.0000 C   0  0
   -1.4746   -1.5097    0.0000 C   0  0
    0.0108   -0.7417    0.0000 C   0  0
    0.0050    0.7829    0.0000 C   0  0
   -1.4863    1.5396    0.0000 C   0  0
    0.7584   -1.6282    0.0000 C   0  0
    2.2458   -1.3866    0.0000 N   0  0
    2.9483    0.0319    0.0000 C   0  0
    2.2532    1.4268    0.0000 C   0  0
    0.7819    1.7116    0.0000 N   0  0
    0.2374   -3.0356    0.0000 C   0  0
    2.9793    2.3822    0.0000 O   0  0
   -1.2404   -3.2927    0.0000 C   0  0
   -1.7570   -4.7010    0.0000 C   0  0
   -0.7958   -5.8525    0.0000 C   0  0
    0.6821   -5.5958    0.0000 C   0  0
    1.1987   -4.1875    0.0000 C   0  0
   -1.4957   -2.7095    0.0000 Cl  0  0
    0.3801    2.8423    0.0000 C   0  0
    2.3810   -3.9822    0.0000 F   0  0
  1  2  2  0
  1  6  1  0
  2  3  1  0
  3  4  2  0
  3 19  1  0
  4  5  1  0
  4  7  1  0
  5  6  2  0
  5 11  1  0
  7  8  2  0
  7 12  1  0
  8  9  1  0
  9 10  1  0
 10 11  1  0
 10 13  2  0
 11 20  1  0
 12 14  2  0
 12 18  1  0
 14 15  1  0
 15 16  2  0
 16 17  1  0
 17 18  2  0
 18 21  1  0
M  END
> <Name>
Ro13-0699

> <Family>
A.1

> <IC50_uM>
0.150000

> <set>
0

$$$$
Ro07-6198
  SciTegic05270810122D

 21 23  0  0  0  0            999 V2000
   -2.8265    0.7721    0.0000 C   0  0
   -2.8207   -0.7526    0.0000 C   0  0
   -1.4746   -1.5097    0.0000 C   0  0
    0.0108   -0.7417    0.0000 C   0  0
    0.0050    0.7829    0.0000 C   0  0
   -1.4863    1.5396    0.0000 C   0  0
    0.7584   -1.6282    0.0000 C   0  0
    2.2458   -1.3866    0.0000 N   0  0
    2.9483    0.0319    0.0000 C   0  0
    2.2532    1.4268    0.0000 C   0  0
    0.7819    1.7116    0.0000 N   0  0
    0.2374   -3.0356    0.0000 C   0  0
    2.9793    2.3822    0.0000 O   0  0
    1.1987   -4.1875    0.0000 C   0  0
    0.6821   -5.5958    0.0000 C   0  0
   -0.7958   -5.8525    0.0000 C   0  0
   -1.7570   -4.7010    0.0000 C   0  0
   -1.2404   -3.2927    0.0000 C   0  0
   -2.0096   -2.3716    0.0000 F   0  0
   -3.8658    1.3719    0.0000 Cl  0  0
    2.3810   -3.9822    0.0000 F   0  0
  1  2  2  0
  1  6  1  0
  1 20  1  0
  2  3  1  0
  3  4  2  0
  4  5  1  0
  4  7  1  0
  5  6  2  0
  5 11  1  0
  7  8  2  0
  7 12  1  0
  8  9  1  0
  9 10  1  0
 10 11  1  0
 10 13  2  0
 12 14  2  0
 12 18  1  0
 14 15  1  0
 14 21  1  0
 15 16  2  0
 16 17  1  0
 17 18  2  0
 18 19  1  0
M  END
> <Name>
Ro07-6198

> <Family>
A.1

> <IC50_uM>
0.028000

> <set>
0

$$$$
Ro20-8895
  SciTegic05270810122D

 20 22  0  0  0  0            999 V2000
   -2.8265    0.7721    0.0000 C   0  0
   -2.8207   -0.7526    0.0000 C   0  0
   -1.4746   -1.5097    0.0000 C   0  0
    0.0108   -0.7417    0.0000 C   0  0
    0.0050    0.7829    0.0000 C   0  0
   -1.4863    1.5396    0.0000 C   0  0
    0.7584   -1.6282    0.0000 C   0  0
    2.2458   -1.3866    0.0000 N   0  0
    2.9483    0.0319    0.0000 C   0  0
    2.2532    1.4268    0.0000 C   0  0
    0.7819    1.7116    0.0000 N   0  0
    0.2374   -3.0356    0.0000 C   0  0
    2.9793    2.3822    0.0000 O   0  0
   -1.2404   -3.2927    0.0000 C   0  0
   -1.7570   -4.7010    0.0000 C   0  0
   -0.7958   -5.8525    0.0000 C   0  0
    0.6821   -5.5958    0.0000 C   0  0
    1.1987   -4.1875    0.0000 C   0  0
    2.3810   -3.9822    0.0000 F   0  0
   -3.8658    1.3719    0.0000 C   0  0
  1  2  2  0
  1  6  1  0
  1 20  1  0
  2  3  1  0
  3  4  2  0
  4  5  1  0
  4  7  1  0
  5  6  2  0
  5 11  1  0
  7  8  2  0
  7 12  1  0
  8  9  1  0
  9 10  1  0
 10 11  1  0
 10 13  2  0
 12 14  2  0
 12 18  1  0
 14 15  1  0
 15 16  2  0
 16 17  1  0
 17 18  2  0
 18 19  1  0
M  END
> <Name>
Ro20-8895

> <Family>
A.1

> <IC50_uM>
0.019000

> <set>
1

$$$$
Ro13-0593
  SciTegic05270810122D

 21 23  0  0  0  0            999 V2000
   -2.8265    0.7721    0.0000 C   0  0
   -2.8207   -0.7526    0.0000 C   0  0
   -1.4746   -1.5097    0.0000 C   0  0
    0.0108   -0.7417    0.0000 C   0  0
    0.0050    0.7829    0.0000 C   0  0
   -1.4863    1.5396    0.0000 C   0  0
    0.7584   -1.6282    0.0000 C   0  0
    2.2458   -1.3866    0.0000 N   0  0
    2.9483    0.0319    0.0000 C   0  0
    2.2532    1.4268    0.0000 C   0  0
    0.7819    1.7116    0.0000 N   0  0
    0.2374   -3.0356    0.0000 C   0  0
    2.9793    2.3822    0.0000 O   0  0
   -1.2404   -3.2927    0.0000 C   0  0
   -1.7570   -4.7010    0.0000 C   0  0
   -0.7958   -5.8525    0.0000 C   0  0
    0.6821   -5.5958    0.0000 C   0  0
    1.1987   -4.1875    0.0000 C   0  0
    2.3810   -3.9822    0.0000 F   0  0
   -1.5166    2.7392    0.0000 Cl  0  0
    0.3801    2.8423    0.0000 C   0  0
  1  2  2  0
  1  6  1  0
  2  3  1  0
  3  4  2  0
  4  5  1  0
  4  7  1  0
  5  6  2  0
  5 11  1  0
  6 20  1  0
  7  8  2  0
  7 12  1  0
  8  9  1  0
  9 10  1  0
 10 11  1  0
 10 13  2  0
 11 21  1  0
 12 14  2  0
 12 18  1  0
 14 15  1  0
 15 16  2  0
 16 17  1  0
 17 18  2  0
 18 19  1  0
M  END
> <Name>
Ro13-0593

> <Family>
A.1

> <IC50_uM>
0.072000

> <set>
1

$$$$
Ro13-0882
  SciTegic05270810122D

 22 24  0  0  0  0            999 V2000
   -2.8265    0.7721    0.0000 C   0  0
   -2.8207   -0.7526    0.0000 C   0  0
   -1.4746   -1.5097    0.0000 C   0  0
    0.0108   -0.7417    0.0000 C   0  0
    0.0050    0.7829    0.0000 C   0  0
   -1.4863    1.5396    0.0000 C   0  0
    0.7584   -1.6282    0.0000 C   0  0
    2.2458   -1.3866    0.0000 N   0  0
    2.9483    0.0319    0.0000 C   0  0
    2.2532    1.4268    0.0000 C   0  0
    0.7819    1.7116    0.0000 N   0  0
    0.2374   -3.0356    0.0000 C   0  0
    2.9793    2.3822    0.0000 O   0  0
   -1.2404   -3.2927    0.0000 C   0  0
   -1.7570   -4.7010    0.0000 C   0  0
   -0.7958   -5.8525    0.0000 C   0  0
    0.6821   -5.5958    0.0000 C   0  0
    1.1987   -4.1875    0.0000 C   0  0
    2.3810   -3.9822    0.0000 F   0  0
    0.3801    2.8423    0.0000 C   0  0
   -1.4957   -2.7095    0.0000 Cl  0  0
   -3.8658    1.3719    0.0000 Cl  0  0
  1  2  2  0
  1  6  1  0
  1 22  1  0
  2  3  1  0
  3  4  2  0
  3 21  1  0
  4  5  1  0
  4  7  1  0
  5  6  2  0
  5 11  1  0
  7  8  2  0
  7 12  1  0
  8  9  1  0
  9 10  1  0
 10 11  1  0
 10 13  2  0
 11 20  1  0
 12 14  2  0
 12 18  1  0
 14 15  1  0
 15 16  2  0
 16 17  1  0
 17 18  2  0
 18 19  1  0
M  END
> <Name>
Ro13-0882

> <Family>
A.1

> <IC50_uM>
0.300000

> <set>
1

$$$$
Ro22-6762
  SciTegic05270810122D

 21 23  0  0  0  0            999 V2000
   -2.8265    0.7721    0.0000 C   0  0
   -2.8207   -0.7526    0.0000 C   0  0
   -1.4746   -1.5097    0.0000 C   0  0
    0.0108   -0.7417    0.0000 C   0  0
    0.0050    0.7829    0.0000 C   0  0
   -1.4863    1.5396    0.0000 C   0  0
    0.7584   -1.6282    0.0000 C   0  0
    2.2458   -1.3866    0.0000 N   0  0
    2.9483    0.0319    0.0000 C   0  0
    2.2532    1.4268    0.0000 C   0  0
    0.7819    1.7116    0.0000 N   0  0
    0.2374   -3.0356    0.0000 C   0  0
    2.9793    2.3822    0.0000 O   0  0
    1.1987   -4.1875    0.0000 C   0  0
    0.6821   -5.5958    0.0000 C   0  0
   -0.7958   -5.8525    0.0000 C   0  0
   -1.7570   -4.7010    0.0000 C   0  0
   -1.2404   -3.2927    0.0000 C   0  0
    0.3801    2.8423    0.0000 C   0  0
   -1.4957   -2.7095    0.0000 Cl  0  0
   -3.8554   -1.3604    0.0000 Cl  0  0
  1  2  2  0
  1  6  1  0
  2  3  1  0
  2 21  1  0
  3  4  2  0
  3 20  1  0
  4  5  1  0
  4  7  1  0
  5  6  2  0
  5 11  1  0
  7  8  2  0
  7 12  1  0
  8  9  1  0
  9 10  1  0
 10 11  1  0
 10 13  2  0
 11 19  1  0
 12 14  2  0
 12 18  1  0
 14 15  1  0
 15 16  2  0
 16 17  1  0
 17 18  2  0
M  END
> <Name>
Ro22-6762

> <Family>
A.1

> <IC50_uM>
0.040000

> <set>
1

$$$$
Ro20-8065
  SciTegic05270810122D

 21 23  0  0  0  0            999 V2000
   -2.8265    0.7721    0.0000 C   0  0
   -2.8207   -0.7526    0.0000 C   0  0
   -1.4746   -1.5097    0.0000 C   0  0
    0.0108   -0.7417    0.0000 C   0  0
    0.0050    0.7829    0.0000 C   0  0
   -1.4863    1.5396    0.0000 C   0  0
    0.7584   -1.6282    0.0000 C   0  0
    2.2458   -1.3866    0.0000 N   0  0
    2.9483    0.0319    0.0000 C   0  0
    2.2532    1.4268    0.0000 C   0  0
    0.7819    1.7116    0.0000 N   0  0
    0.2374   -3.0356    0.0000 C   0  0
    2.9793    2.3822    0.0000 O   0  0
   -1.2404   -3.2927    0.0000 C   0  0
   -1.7570   -4.7010    0.0000 C   0  0
   -0.7958   -5.8525    0.0000 C   0  0
    0.6821   -5.5958    0.0000 C   0  0
    1.1987   -4.1875    0.0000 C   0  0
   -1.4957   -2.7095    0.0000 Cl  0  0
   -3.8554   -1.3604    0.0000 Cl  0  0
    2.3810   -3.9822    0.0000 F   0  0
  1  2  2  0
  1  6  1  0
  2  3  1  0
  2 20  1  0
  3  4  2  0
  3 19  1  0
  4  5  1  0
  4  7  1  0
  5  6  2  0
  5 11  1  0
  7  8  2  0
  7 12  1  0
  8  9  1  0
  9 10  1  0
 10 11  1  0
 10 13  2  0
 12 14  2  0
 12 18  1  0
 14 15  1  0
 15 16  2  0
 16 17  1  0
 17 18  2  0
 18 21  1  0
M  END
> <Name>
Ro20-8065

> <Family>
A.1

> <IC50_uM>
0.003600

> <set>
1

$$$$
Ro20-8552
  SciTegic05270810122D

 21 23  0  0  0  0            999 V2000
   -2.8265    0.7721    0.0000 C   0  0
   -2.8207   -0.7526    0.0000 C   0  0
   -1.4746   -1.5097    0.0000 C   0  0
    0.0108   -0.7417    0.0000 C   0  0
    0.0050    0.7829    0.0000 C   0  0
   -1.4863    1.5396    0.0000 C   0  0
    0.7584   -1.6282    0.0000 C   0  0
    2.2458   -1.3866    0.0000 N   0  0
    2.9483    0.0319    0.0000 C   0  0
    2.2532    1.4268    0.0000 C   0  0
    0.7819    1.7116    0.0000 N   0  0
    0.2374   -3.0356    0.0000 C   0  0
    2.9793    2.3822    0.0000 O   0  0
   -1.2404   -3.2927    0.0000 C   0  0
   -1.7570   -4.7010    0.0000 C   0  0
   -0.7958   -5.8525    0.0000 C   0  0
    0.6821   -5.5958    0.0000 C   0  0
    1.1987   -4.1875    0.0000 C   0  0
   -1.4957   -2.7095    0.0000 C   0  0
   -3.8554   -1.3604    0.0000 Cl  0  0
    2.3810   -3.9822    0.0000 F   0  0
  1  2  2  0
  1  6  1  0
  2  3  1  0
  2 20  1  0
  3  4  2  0
  3 19  1  0
  4  5  1  0
  4  7  1  0
  5  6  2  0
  5 11  1  0
  7  8  2  0
  7 12  1  0
  8  9  1  0
  9 10  1  0
 10 11  1  0
 10 13  2  0
 12 14  2  0
 12 18  1  0
 14 15  1  0
 15 16  2  0
 16 17  1  0
 17 18  2  0
 18 21  1  0
M  END
> <Name>
Ro20-8552

> <Family>
A.1

> <IC50_uM>
0.014000

> <set>
1

$$$$
Ro05-2750
  SciTegic05270810122D

 20 22  0  0  0  0            999 V2000
   -2.8265    0.7721    0.0000 C   0  0
   -2.8207   -0.7526    0.0000 C   0  0
   -1.4746   -1.5097    0.0000 C   0  0
    0.0108   -0.7417    0.0000 C   0  0
    0.0050    0.7829    0.0000 C   0  0
   -1.4863    1.5396    0.0000 C   0  0
    0.7584   -1.6282    0.0000 C   0  0
    2.2458   -1.3866    0.0000 N   0  0
    2.9483    0.0319    0.0000 C   0  0
    2.2532    1.4268    0.0000 C   0  0
    0.7819    1.7116    0.0000 N   0  0
    0.2374   -3.0356    0.0000 C   0  0
    2.9793    2.3822    0.0000 O   0  0
    1.1987   -4.1875    0.0000 C   0  0
    0.6821   -5.5958    0.0000 C   0  0
   -0.7958   -5.8525    0.0000 C   0  0
   -1.7570   -4.7010    0.0000 C   0  0
   -1.2404   -3.2927    0.0000 C   0  0
   -1.4957   -2.7095    0.0000 Cl  0  0
   -3.8658    1.3719    0.0000 Cl  0  0
  1  2  2  0
  1  6  1  0
  1 20  1  0
  2  3  1  0
  3  4  2  0
  3 19  1  0
  4  5  1  0
  4  7  1  0
  5  6  2  0
  5 11  1  0
  7  8  2  0
  7 12  1  0
  8  9  1  0
  9 10  1  0
 10 11  1  0
 10 13  2  0
 12 14  2  0
 12 18  1  0
 14 15  1  0
 15 16  2  0
 16 17  1  0
 17 18  2  0
M  END
> <Name>
Ro05-2750

> <Family>
A.1

> <IC50_uM>
0.037000

> <set>
0

$$$$
Ro07-3609
  SciTegic05270810122D

 20 22  0  0  0  0            999 V2000
   -2.8265    0.7721    0.0000 C   0  0
   -2.8207   -0.7526    0.0000 C   0  0
   -1.4746   -1.5097    0.0000 C   0  0
    0.0108   -0.7417    0.0000 C   0  0
    0.0050    0.7829    0.0000 C   0  0
   -1.4863    1.5396    0.0000 C   0  0
    0.7584   -1.6282    0.0000 C   0  0
    2.2458   -1.3866    0.0000 N   0  0
    2.9483    0.0319    0.0000 C   0  0
    2.2532    1.4268    0.0000 C   0  0
    0.7819    1.7116    0.0000 N   0  0
    0.2374   -3.0356    0.0000 C   0  0
    2.9793    2.3822    0.0000 O   0  0
    1.1987   -4.1875    0.0000 C   0  0
    0.6821   -5.5958    0.0000 C   0  0
   -0.7958   -5.8525    0.0000 C   0  0
   -1.7570   -4.7010    0.0000 C   0  0
   -1.2404   -3.2927    0.0000 C   0  0
   -1.4957   -2.7095    0.0000 Cl  0  0
   -3.8658    1.3719    0.0000 C   0  0
  1  2  2  0
  1  6  1  0
  1 20  1  0
  2  3  1  0
  3  4  2  0
  3 19  1  0
  4  5  1  0
  4  7  1  0
  5  6  2  0
  5 11  1  0
  7  8  2  0
  7 12  1  0
  8  9  1  0
  9 10  1  0
 10 11  1  0
 10 13  2  0
 12 14  2  0
 12 18  1  0
 14 15  1  0
 15 16  2  0
 16 17  1  0
 17 18  2  0
M  END
> <Name>
Ro07-3609

> <Family>
A.1

> <IC50_uM>
0.052000

> <set>
2

$$$$
Ro14-2312
  SciTegic05270810122D

 22 24  0  0  0  0            999 V2000
   -2.8265    0.7721    0.0000 C   0  0
   -2.8207   -0.7526    0.0000 C   0  0
   -1.4746   -1.5097    0.0000 C   0  0
    0.0108   -0.7417    0.0000 C   0  0
    0.0050    0.7829    0.0000 C   0  0
   -1.4863    1.5396    0.0000 C   0  0
    0.7584   -1.6282    0.0000 C   0  0
    2.2458   -1.3866    0.0000 N   0  0
    2.9483    0.0319    0.0000 C   0  0
    2.2532    1.4268    0.0000 C   0  0
    0.7819    1.7116    0.0000 N   0  0
    0.2374   -3.0356    0.0000 C   0  0
    2.9793    2.3822    0.0000 O   0  0
   -1.2404   -3.2927    0.0000 C   0  0
   -1.7570   -4.7010    0.0000 C   0  0
   -0.7958   -5.8525    0.0000 C   0  0
    0.6821   -5.5958    0.0000 C   0  0
    1.1987   -4.1875    0.0000 C   0  0
   -1.4957   -2.7095    0.0000 N   0  0
   -3.8658    1.3719    0.0000 Cl  0  0
    0.3801    2.8423    0.0000 C   0  0
    2.3810   -3.9822    0.0000 F   0  0
  1  2  2  0
  1  6  1  0
  1 20  1  0
  2  3  1  0
  3  4  2  0
  3 19  1  0
  4  5  1  0
  4  7  1  0
  5  6  2  0
  5 11  1  0
  7  8  2  0
  7 12  1  0
  8  9  1  0
  9 10  1  0
 10 11  1  0
 10 13  2  0
 11 21  1  0
 12 14  2  0
 12 18  1  0
 14 15  1  0
 15 16  2  0
 16 17  1  0
 17 18  2  0
 18 22  1  0
M  END
> <Name>
Ro14-2312

> <Family>
A.1

> <IC50_uM>
>1

> <set>
2

$$$$
Ro17-2221
  SciTegic05270810122D

 21 23  0  0  0  0            999 V2000
   -2.8265    0.7721    0.0000 C   0  0
   -2.8207   -0.7526    0.0000 C   0  0
   -1.4746   -1.5097    0.0000 C   0  0
    0.0108   -0.7417    0.0000 C   0  0
    0.0050    0.7829    0.0000 C   0  0
   -1.4863    1.5396    0.0000 C   0  0
    0.7584   -1.6282    0.0000 C   0  0
    2.2458   -1.3866    0.0000 N   0  0
    2.9483    0.0319    0.0000 C   0  0
    2.2532    1.4268    0.0000 C   0  0
    0.7819    1.7116    0.0000 N   0  0
    0.2374   -3.0356    0.0000 C   0  0
    2.9793    2.3822    0.0000 O   0  0
    1.1987   -4.1875    0.0000 C   0  0
    0.6821   -5.5958    0.0000 C   0  0
   -0.7958   -5.8525    0.0000 C   0  0
   -1.7570   -4.7010    0.0000 C   0  0
   -1.2404   -3.2927    0.0000 C   0  0
    0.2030    3.0975    0.0000 C   0  0
    1.1111    4.2925    0.0000 C   0  0
    0.6473    5.3993    0.0000 N   0  0
  1  2  2  0
  1  6  1  0
  2  3  1  0
  3  4  2  0
  4  5  1  0
  4  7  1  0
  5  6  2  0
  5 11  1  0
  7  8  2  0
  7 12  1  0
  8  9  1  0
  9 10  1  0
 10 11  1  0
 10 13  2  0
 11 19  1  0
 12 14  2  0
 12 18  1  0
 14 15  1  0
 15 16  2  0
 16 17  1  0
 17 18  2  0
 19 20  1  0
 20 21  1  0
M  END
> <Name>
Ro17-2221

> <Family>
A.1

> <IC50_uM>
0.260000

> <set>
2

$$$$
Ro08-3026
  SciTegic05270810122D

 24 26  0  0  0  0            999 V2000
   -2.8265    0.7721    0.0000 C   0  0
   -2.8207   -0.7526    0.0000 C   0  0
   -1.4746   -1.5097    0.0000 C   0  0
    0.0108   -0.7417    0.0000 C   0  0
    0.0050    0.7829    0.0000 C   0  0
   -1.4863    1.5396    0.0000 C   0  0
    0.7584   -1.6282    0.0000 C   0  0
    2.2458   -1.3866    0.0000 N   0  0
    2.9483    0.0319    0.0000 C   0  0
    2.2532    1.4268    0.0000 C   0  0
    0.7819    1.7116    0.0000 N   0  0
    0.2374   -3.0356    0.0000 C   0  0
    2.9793    2.3822    0.0000 O   0  0
    1.1987   -4.1875    0.0000 C   0  0
    0.6821   -5.5958    0.0000 C   0  0
   -0.7958   -5.8525    0.0000 C   0  0
   -1.7570   -4.7010    0.0000 C   0  0
   -1.2404   -3.2927    0.0000 C   0  0
   -3.8554   -1.3604    0.0000 Cl  0  0
    0.2030    3.0975    0.0000 C   0  0
    1.1111    4.2925    0.0000 O   0  0
    0.5311    5.6767    0.0000 C   0  0
    1.4391    6.8717    0.0000 C   0  0
    0.9754    7.9785    0.0000 N   0  0
  1  2  2  0
  1  6  1  0
  2  3  1  0
  2 19  1  0
  3  4  2  0
  4  5  1  0
  4  7  1  0
  5  6  2  0
  5 11  1  0
  7  8  2  0
  7 12  1  0
  8  9  1  0
  9 10  1  0
 10 11  1  0
 10 13  2  0
 11 20  1  0
 12 14  2  0
 12 18  1  0
 14 15  1  0
 15 16  2  0
 16 17  1  0
 17 18  2  0
 20 21  1  0
 21 22  1  0
 22 23  1  0
 23 24  1  0
M  END
> <Name>
Ro08-3026

> <Family>
A.1

> <IC50_uM>
0.063000

> <set>
1

$$$$
Halazepam
  SciTegic05270810122D

 24 26  0  0  0  0            999 V2000
   -2.8265    0.7721    0.0000 C   0  0
   -2.8207   -0.7526    0.0000 C   0  0
   -1.4746   -1.5097    0.0000 C   0  0
    0.0108   -0.7417    0.0000 C   0  0
    0.0050    0.7829    0.0000 C   0  0
   -1.4863    1.5396    0.0000 C   0  0
    0.7584   -1.6282    0.0000 C   0  0
    2.2458   -1.3866    0.0000 N   0  0
    2.9483    0.0319    0.0000 C   0  0
    2.2532    1.4268    0.0000 C   0  0
    0.7819    1.7116    0.0000 N   0  0
    0.2374   -3.0356    0.0000 C   0  0
    2.9793    2.3822    0.0000 O   0  0
    1.1987   -4.1875    0.0000 C   0  0
    0.6821   -5.5958    0.0000 C   0  0
   -0.7958   -5.8525    0.0000 C   0  0
   -1.7570   -4.7010    0.0000 C   0  0
   -1.2404   -3.2927    0.0000 C   0  0
   -3.8554   -1.3604    0.0000 Cl  0  0
    0.2030    3.0975    0.0000 C   0  0
    1.1111    4.2925    0.0000 C   0  0
    0.6473    5.3993    0.0000 F   0  0
    2.3015    4.1411    0.0000 F   0  0
    1.8375    5.2476    0.0000 F   0  0
  1  2  2  0
  1  6  1  0
  2  3  1  0
  2 19  1  0
  3  4  2  0
  4  5  1  0
  4  7  1  0
  5  6  2  0
  5 11  1  0
  7  8  2  0
  7 12  1  0
  8  9  1  0
  9 10  1  0
 10 11  1  0
 10 13  2  0
 11 20  1  0
 12 14  2  0
 12 18  1  0
 14 15  1  0
 15 16  2  0
 16 17  1  0
 17 18  2  0
 20 21  1  0
 21 22  1  0
 21 23  1  0
 21 24  1  0
M  END
> <Name>
Halazepam

> <Family>
A.1

> <IC50_uM>
0.092000

> <set>
1

$$$$
Pinazepam
  SciTegic05270810122D

 22 24  0  0  0  0            999 V2000
   -2.8265    0.7721    0.0000 C   0  0
   -2.8207   -0.7526    0.0000 C   0  0
   -1.4746   -1.5097    0.0000 C   0  0
    0.0108   -0.7417    0.0000 C   0  0
    0.0050    0.7829    0.0000 C   0  0
   -1.4863    1.5396    0.0000 C   0  0
    0.7584   -1.6282    0.0000 C   0  0
    2.2458   -1.3866    0.0000 N   0  0
    2.9483    0.0319    0.0000 C   0  0
    2.2532    1.4268    0.0000 C   0  0
    0.7819    1.7116    0.0000 N   0  0
    0.2374   -3.0356    0.0000 C   0  0
    2.9793    2.3822    0.0000 O   0  0
    1.1987   -4.1875    0.0000 C   0  0
    0.6821   -5.5958    0.0000 C   0  0
   -0.7958   -5.8525    0.0000 C   0  0
   -1.7570   -4.7010    0.0000 C   0  0
   -1.2404   -3.2927    0.0000 C   0  0
   -3.8554   -1.3604    0.0000 Cl  0  0
    0.2030    3.0975    0.0000 C   0  0
    1.1111    4.2925    0.0000 C   0  0
    1.8371    5.2479    0.0000 C   0  0
  1  2  2  0
  1  6  1  0
  2  3  1  0
  2 19  1  0
  3  4  2  0
  4  5  1  0
  4  7  1  0
  5  6  2  0
  5 11  1  0
  7  8  2  0
  7 12  1  0
  8  9  1  0
  9 10  1  0
 10 11  1  0
 10 13  2  0
 11 20  1  0
 12 14  2  0
 12 18  1  0
 14 15  1  0
 15 16  2  0
 16 17  1  0
 17 18  2  0
 20 21  1  0
 21 22  3  0
M  END
> <Name>
Pinazepam

> <Family>
A.1

> <IC50_uM>
0.092500

> <set>
1

$$$$
Prazepam
  SciTegic05270810122D

 23 26  0  0  0  0            999 V2000
   -2.8265    0.7721    0.0000 C   0  0
   -2.8207   -0.7526    0.0000 C   0  0
   -1.4746   -1.5097    0.0000 C   0  0
    0.0108   -0.7417    0.0000 C   0  0
    0.0050    0.7829    0.0000 C   0  0
   -1.4863    1.5396    0.0000 C   0  0
    0.7584   -1.6282    0.0000 C   0  0
    2.2458   -1.3866    0.0000 N   0  0
    2.9483    0.0319    0.0000 C   0  0
    2.2532    1.4268    0.0000 C   0  0
    0.7819    1.7116    0.0000 N   0  0
    0.2374   -3.0356    0.0000 C   0  0
    2.9793    2.3822    0.0000 O   0  0
   -3.8554   -1.3604    0.0000 Cl  0  0
    1.1987   -4.1875    0.0000 C   0  0
    0.6821   -5.5958    0.0000 C   0  0
   -0.7958   -5.8525    0.0000 C   0  0
   -1.7570   -4.7010    0.0000 C   0  0
   -1.2404   -3.2927    0.0000 C   0  0
    0.2030    3.0975    0.0000 C   0  0
    1.1111    4.2925    0.0000 C   0  0
    1.2489    5.7073    0.0000 C   0  0
    2.4404    4.7961    0.0000 C   0  0
  1  2  2  0
  1  6  1  0
  2  3  1  0
  2 14  1  0
  3  4  2  0
  4  5  1  0
  4  7  1  0
  5  6  2  0
  5 11  1  0
  7  8  2  0
  7 12  1  0
  8  9  1  0
  9 10  1  0
 10 11  1  0
 10 13  2  0
 11 20  1  0
 12 15  2  0
 12 19  1  0
 15 16  1  0
 16 17  2  0
 17 18  1  0
 18 19  2  0
 20 21  1  0
 21 22  1  0
 21 23  1  0
 22 23  1  0
M  END
> <Name>
Prazepam

> <Family>
A.1

> <IC50_uM>
0.110000

> <set>
1

$$$$
Ro06-9098
  SciTegic05270810122D

 24 26  0  0  0  0            999 V2000
   -2.8265    0.7721    0.0000 C   0  0
   -2.8207   -0.7526    0.0000 C   0  0
   -1.4746   -1.5097    0.0000 C   0  0
    0.0108   -0.7417    0.0000 C   0  0
    0.0050    0.7829    0.0000 C   0  0
   -1.4863    1.5396    0.0000 C   0  0
    0.7584   -1.6282    0.0000 C   0  0
    2.2458   -1.3866    0.0000 N   0  0
    2.9483    0.0319    0.0000 C   0  0
    2.2532    1.4268    0.0000 C   0  0
    0.7819    1.7116    0.0000 N   0  0
    0.2374   -3.0356    0.0000 C   0  0
    2.9793    2.3822    0.0000 O   0  0
    1.1987   -4.1875    0.0000 C   0  0
    0.6821   -5.5958    0.0000 C   0  0
   -0.7958   -5.8525    0.0000 C   0  0
   -1.7570   -4.7010    0.0000 C   0  0
   -1.2404   -3.2927    0.0000 C   0  0
   -4.1154   -1.5107    0.0000 N   0  3
   -4.1089   -2.7107    0.0000 O   0  0
   -5.1581   -0.9167    0.0000 O   0  5
    0.2030    3.0975    0.0000 C   0  0
    1.1111    4.2925    0.0000 O   0  0
    0.6473    5.3993    0.0000 C   0  0
  1  2  2  0
  1  6  1  0
  2  3  1  0
  2 19  1  0
  3  4  2  0
  4  5  1  0
  4  7  1  0
  5  6  2  0
  5 11  1  0
  7  8  2  0
  7 12  1  0
  8  9  1  0
  9 10  1  0
 10 11  1  0
 10 13  2  0
 11 22  1  0
 12 14  2  0
 12 18  1  0
 14 15  1  0
 15 16  2  0
 16 17  1  0
 17 18  2  0
 19 20  2  0
 19 21  1  0
 22 23  1  0
 23 24  1  0
M  CHG  2  19   1  21  -1
M  END
> <Name>
Ro06-9098

> <Family>
A.1

> <IC50_uM>
0.430000

> <set>
1

$$$$
Ro20-1310
  SciTegic05270810122D

 23 25  0  0  0  0            999 V2000
   -2.8265    0.7721    0.0000 C   0  0
   -2.8207   -0.7526    0.0000 C   0  0
   -1.4746   -1.5097    0.0000 C   0  0
    0.0108   -0.7417    0.0000 C   0  0
    0.0050    0.7829    0.0000 C   0  0
   -1.4863    1.5396    0.0000 C   0  0
    0.7584   -1.6282    0.0000 C   0  0
    2.2458   -1.3866    0.0000 N   0  0
    2.9483    0.0319    0.0000 C   0  0
    2.2532    1.4268    0.0000 C   0  0
    0.7819    1.7116    0.0000 N   0  0
    0.2374   -3.0356    0.0000 C   0  0
    2.9793    2.3822    0.0000 O   0  0
    1.1987   -4.1875    0.0000 C   0  0
    0.6821   -5.5958    0.0000 C   0  0
   -0.7958   -5.8525    0.0000 C   0  0
   -1.7570   -4.7010    0.0000 C   0  0
   -1.2404   -3.2927    0.0000 C   0  0
   -3.8554   -1.3604    0.0000 Cl  0  0
    0.2002    3.0963    0.0000 C   0  0
   -0.9903    3.2465    0.0000 C   0  0
    0.9253    4.0526    0.0000 C   0  0
   -0.2652    4.2024    0.0000 C   0  0
  1  2  2  0
  1  6  1  0
  2  3  1  0
  2 19  1  0
  3  4  2  0
  4  5  1  0
  4  7  1  0
  5  6  2  0
  5 11  1  0
  7  8  2  0
  7 12  1  0
  8  9  1  0
  9 10  1  0
 10 11  1  0
 10 13  2  0
 11 20  1  0
 12 14  2  0
 12 18  1  0
 14 15  1  0
 15 16  2  0
 16 17  1  0
 17 18  2  0
 20 21  1  0
 20 22  1  0
 20 23  1  0
M  END
> <Name>
Ro20-1310

> <Family>
A.1

> <IC50_uM>
0.620000

> <set>
1

$$$$
Ro05-7094
  SciTegic05270810122D

 25 27  0  0  0  0            999 V2000
   -2.8265    0.7721    0.0000 C   0  0
   -2.8207   -0.7526    0.0000 C   0  0
   -1.4746   -1.5097    0.0000 C   0  0
    0.0108   -0.7417    0.0000 C   0  0
    0.0050    0.7829    0.0000 C   0  0
   -1.4863    1.5396    0.0000 C   0  0
    0.7584   -1.6282    0.0000 C   0  0
    2.2458   -1.3866    0.0000 N   0  0
    2.9483    0.0319    0.0000 C   0  0
    2.2532    1.4268    0.0000 C   0  0
    0.7819    1.7116    0.0000 N   0  0
    0.2374   -3.0356    0.0000 C   0  0
    2.9793    2.3822    0.0000 O   0  0
    1.1987   -4.1875    0.0000 C   0  0
    0.6821   -5.5958    0.0000 C   0  0
   -0.7958   -5.8525    0.0000 C   0  0
   -1.7570   -4.7010    0.0000 C   0  0
   -1.2404   -3.2927    0.0000 C   0  0
   -3.8554   -1.3604    0.0000 Cl  0  0
    0.2030    3.0975    0.0000 C   0  0
   -0.9874    3.2489    0.0000 C   0  0
    1.1111    4.2925    0.0000 C   0  0
    2.3015    4.1411    0.0000 O   0  0
    0.5311    5.6767    0.0000 N   0  0
    1.2571    6.6322    0.0000 C   0  0
  1  2  2  0
  1  6  1  0
  2  3  1  0
  2 19  1  0
  3  4  2  0
  4  5  1  0
  4  7  1  0
  5  6  2  0
  5 11  1  0
  7  8  2  0
  7 12  1  0
  8  9  1  0
  9 10  1  0
 10 11  1  0
 10 13  2  0
 11 20  1  0
 12 14  2  0
 12 18  1  0
 14 15  1  0
 15 16  2  0
 16 17  1  0
 17 18  2  0
 20 21  1  0
 20 22  1  0
 22 23  2  0
 22 24  1  0
 24 25  1  0
M  END
> <Name>
Ro05-7094

> <Family>
A.1

> <IC50_uM>
>1

> <set>
1

$$$$
Ro07-1986
  SciTegic05270810122D

 23 25  0  0  0  0            999 V2000
   -2.8265    0.7721    0.0000 C   0  0
   -2.8207   -0.7526    0.0000 C   0  0
   -1.4746   -1.5097    0.0000 C   0  0
    0.0108   -0.7417    0.0000 C   0  0
    0.0050    0.7829    0.0000 C   0  0
   -1.4863    1.5396    0.0000 C   0  0
    0.7584   -1.6282    0.0000 C   0  0
    2.2458   -1.3866    0.0000 N   0  0
    2.9483    0.0319    0.0000 C   0  0
    2.2532    1.4268    0.0000 C   0  0
    0.7819    1.7116    0.0000 N   0  0
    0.2374   -3.0356    0.0000 C   0  0
    2.9793    2.3822    0.0000 O   0  0
   -1.2404   -3.2927    0.0000 C   0  0
   -1.7570   -4.7010    0.0000 C   0  0
   -0.7958   -5.8525    0.0000 C   0  0
    0.6821   -5.5958    0.0000 C   0  0
    1.1987   -4.1875    0.0000 C   0  0
   -3.8554   -1.3604    0.0000 Cl  0  0
    2.3810   -3.9822    0.0000 F   0  0
    0.2030    3.0975    0.0000 C   0  0
    1.1111    4.2925    0.0000 C   0  0
    0.6473    5.3993    0.0000 N   0  0
  1  2  2  0
  1  6  1  0
  2  3  1  0
  2 19  1  0
  3  4  2  0
  4  5  1  0
  4  7  1  0
  5  6  2  0
  5 11  1  0
  7  8  2  0
  7 12  1  0
  8  9  1  0
  9 10  1  0
 10 11  1  0
 10 13  2  0
 11 21  1  0
 12 14  2  0
 12 18  1  0
 14 15  1  0
 15 16  2  0
 16 17  1  0
 17 18  2  0
 18 20  1  0
 21 22  1  0
 22 23  1  0
M  END
> <Name>
Ro07-1986

> <Family>
A.1

> <IC50_uM>
0.008300

> <set>
2

$$$$
Flurazepam
  SciTegic05270810122D

 27 29  0  0  0  0            999 V2000
   -2.8265    0.7721    0.0000 C   0  0
   -2.8207   -0.7526    0.0000 C   0  0
   -1.4746   -1.5097    0.0000 C   0  0
    0.0108   -0.7417    0.0000 C   0  0
    0.0050    0.7829    0.0000 C   0  0
   -1.4863    1.5396    0.0000 C   0  0
    0.7584   -1.6282    0.0000 C   0  0
    2.2458   -1.3866    0.0000 N   0  0
    2.9483    0.0319    0.0000 C   0  0
    2.2532    1.4268    0.0000 C   0  0
    0.7819    1.7116    0.0000 N   0  0
    0.2374   -3.0356    0.0000 C   0  0
    2.9793    2.3822    0.0000 O   0  0
   -1.2404   -3.2927    0.0000 C   0  0
   -1.7570   -4.7010    0.0000 C   0  0
   -0.7958   -5.8525    0.0000 C   0  0
    0.6821   -5.5958    0.0000 C   0  0
    1.1987   -4.1875    0.0000 C   0  0
   -3.8554   -1.3604    0.0000 Cl  0  0
    2.3810   -3.9822    0.0000 F   0  0
    0.2030    3.0975    0.0000 C   0  0
    1.1111    4.2925    0.0000 C   0  0
    0.5311    5.6767    0.0000 N   0  0
    0.9754    7.9785    0.0000 C   0  0
    1.4391    6.8717    0.0000 C   0  0
   -1.4199    6.9764    0.0000 C   0  0
   -0.9574    5.8691    0.0000 C   0  0
  1  2  2  0
  1  6  1  0
  2  3  1  0
  2 19  1  0
  3  4  2  0
  4  5  1  0
  4  7  1  0
  5  6  2  0
  5 11  1  0
  7  8  2  0
  7 12  1  0
  8  9  1  0
  9 10  1  0
 10 11  1  0
 10 13  2  0
 11 21  1  0
 12 14  2  0
 12 18  1  0
 14 15  1  0
 15 16  2  0
 16 17  1  0
 17 18  2  0
 18 20  1  0
 21 22  1  0
 22 23  1  0
 23 25  1  0
 23 27  1  0
 24 25  1  0
 26 27  1  0
M  END
> <Name>
Flurazepam

> <Family>
A.1

> <IC50_uM>
0.014800

> <set>
1

$$$$
Ro07-2750
  SciTegic05270810122D

 23 25  0  0  0  0            999 V2000
   -2.8265    0.7721    0.0000 C   0  0
   -2.8207   -0.7526    0.0000 C   0  0
   -1.4746   -1.5097    0.0000 C   0  0
    0.0108   -0.7417    0.0000 C   0  0
    0.0050    0.7829    0.0000 C   0  0
   -1.4863    1.5396    0.0000 C   0  0
    0.7584   -1.6282    0.0000 C   0  0
    2.2458   -1.3866    0.0000 N   0  0
    2.9483    0.0319    0.0000 C   0  0
    2.2532    1.4268    0.0000 C   0  0
    0.7819    1.7116    0.0000 N   0  0
    0.2374   -3.0356    0.0000 C   0  0
    2.9793    2.3822    0.0000 O   0  0
   -1.2404   -3.2927    0.0000 C   0  0
   -1.7570   -4.7010    0.0000 C   0  0
   -0.7958   -5.8525    0.0000 C   0  0
    0.6821   -5.5958    0.0000 C   0  0
    1.1987   -4.1875    0.0000 C   0  0
   -3.8554   -1.3604    0.0000 Cl  0  0
    2.3810   -3.9822    0.0000 F   0  0
    0.2030    3.0975    0.0000 C   0  0
    1.1111    4.2925    0.0000 C   0  0
    0.6473    5.3993    0.0000 O   0  0
  1  2  2  0
  1  6  1  0
  2  3  1  0
  2 19  1  0
  3  4  2  0
  4  5  1  0
  4  7  1  0
  5  6  2  0
  5 11  1  0
  7  8  2  0
  7 12  1  0
  8  9  1  0
  9 10  1  0
 10 11  1  0
 10 13  2  0
 11 21  1  0
 12 14  2  0
 12 18  1  0
 14 15  1  0
 15 16  2  0
 16 17  1  0
 17 18  2  0
 18 20  1  0
 21 22  1  0
 22 23  1  0
M  END
> <Name>
Ro07-2750

> <Family>
A.1

> <IC50_uM>
0.024500

> <set>
1

$$$$
Irazepine
  SciTegic05270810122D

 25 27  0  0  0  0            999 V2000
   -2.8265    0.7721    0.0000 C   0  0
   -2.8207   -0.7526    0.0000 C   0  0
   -1.4746   -1.5097    0.0000 C   0  0
    0.0108   -0.7417    0.0000 C   0  0
    0.0050    0.7829    0.0000 C   0  0
   -1.4863    1.5396    0.0000 C   0  0
    0.7584   -1.6282    0.0000 C   0  0
    2.2458   -1.3866    0.0000 N   0  0
    2.9483    0.0319    0.0000 C   0  0
    2.2532    1.4268    0.0000 C   0  0
    0.7819    1.7116    0.0000 N   0  0
    0.2374   -3.0356    0.0000 C   0  0
    2.9793    2.3822    0.0000 O   0  0
   -1.2404   -3.2927    0.0000 C   0  0
   -1.7570   -4.7010    0.0000 C   0  0
   -0.7958   -5.8525    0.0000 C   0  0
    0.6821   -5.5958    0.0000 C   0  0
    1.1987   -4.1875    0.0000 C   0  0
   -3.8554   -1.3604    0.0000 Cl  0  0
    2.3810   -3.9822    0.0000 F   0  0
    0.2030    3.0975    0.0000 C   0  0
    1.1111    4.2925    0.0000 C   0  0
    0.5311    5.6767    0.0000 N   0  0
    1.4391    6.8717    0.0000 C   0  0
    2.1652    7.8271    0.0000 S   0  0
  1  2  2  0
  1  6  1  0
  2  3  1  0
  2 19  1  0
  3  4  2  0
  4  5  1  0
  4  7  1  0
  5  6  2  0
  5 11  1  0
  7  8  2  0
  7 12  1  0
  8  9  1  0
  9 10  1  0
 10 11  1  0
 10 13  2  0
 11 21  1  0
 12 14  2  0
 12 18  1  0
 14 15  1  0
 15 16  2  0
 16 17  1  0
 17 18  2  0
 18 20  1  0
 21 22  1  0
 22 23  1  0
 23 24  2  0
 24 25  2  0
M  END
> <Name>
Irazepine

> <Family>
A.1

> <IC50_uM>
0.033000

> <set>
1

$$$$
Ro08-9013
  SciTegic05270810122D

 27 29  0  0  0  0            999 V2000
   -2.8265    0.7721    0.0000 C   0  0
   -2.8207   -0.7526    0.0000 C   0  0
   -1.4746   -1.5097    0.0000 C   0  0
    0.0108   -0.7417    0.0000 C   0  0
    0.0050    0.7829    0.0000 C   0  0
   -1.4863    1.5396    0.0000 C   0  0
    0.7584   -1.6282    0.0000 C   0  0
    2.2458   -1.3866    0.0000 N   0  0
    2.9483    0.0319    0.0000 C   0  0
    2.2532    1.4268    0.0000 C   0  0
    0.7819    1.7116    0.0000 N   0  0
    0.2374   -3.0356    0.0000 C   0  0
    2.9793    2.3822    0.0000 O   0  0
   -1.2404   -3.2927    0.0000 C   0  0
   -1.7570   -4.7010    0.0000 C   0  0
   -0.7958   -5.8525    0.0000 C   0  0
    0.6821   -5.5958    0.0000 C   0  0
    1.1987   -4.1875    0.0000 C   0  0
   -3.8554   -1.3604    0.0000 Cl  0  0
    2.3810   -3.9822    0.0000 F   0  0
    0.2030    3.0975    0.0000 C   0  0
    1.1111    4.2925    0.0000 C   0  0
    0.5311    5.6767    0.0000 O   0  0
    1.4391    6.8717    0.0000 C   0  0
    0.8592    8.2559    0.0000 C   0  0
    1.5852    9.2114    0.0000 O   0  0
   -0.3313    8.4073    0.0000 N   0  0
  1  2  2  0
  1  6  1  0
  2  3  1  0
  2 19  1  0
  3  4  2  0
  4  5  1  0
  4  7  1  0
  5  6  2  0
  5 11  1  0
  7  8  2  0
  7 12  1  0
  8  9  1  0
  9 10  1  0
 10 11  1  0
 10 13  2  0
 11 21  1  0
 12 14  2  0
 12 18  1  0
 14 15  1  0
 15 16  2  0
 16 17  1  0
 17 18  2  0
 18 20  1  0
 21 22  1  0
 22 23  1  0
 23 24  1  0
 24 25  1  0
 25 26  2  0
 25 27  1  0
M  END
> <Name>
Ro08-9013

> <Family>
A.1

> <IC50_uM>
0.042500

> <set>
2

$$$$
Ro10-3580
  SciTegic05270810122D

 25 27  0  0  0  0            999 V2000
   -2.8265    0.7721    0.0000 C   0  0
   -2.8207   -0.7526    0.0000 C   0  0
   -1.4746   -1.5097    0.0000 C   0  0
    0.0108   -0.7417    0.0000 C   0  0
    0.0050    0.7829    0.0000 C   0  0
   -1.4863    1.5396    0.0000 C   0  0
    0.7584   -1.6282    0.0000 C   0  0
    2.2458   -1.3866    0.0000 N   0  0
    2.9483    0.0319    0.0000 C   0  0
    2.2532    1.4268    0.0000 C   0  0
    0.7819    1.7116    0.0000 N   0  0
    0.2374   -3.0356    0.0000 C   0  0
    2.9793    2.3822    0.0000 O   0  0
   -1.2404   -3.2927    0.0000 C   0  0
   -1.7570   -4.7010    0.0000 C   0  0
   -0.7958   -5.8525    0.0000 C   0  0
    0.6821   -5.5958    0.0000 C   0  0
    1.1987   -4.1875    0.0000 C   0  0
   -3.8554   -1.3604    0.0000 Cl  0  0
    2.3810   -3.9822    0.0000 F   0  0
    0.2030    3.0975    0.0000 C   0  0
    1.1111    4.2925    0.0000 C   0  0
    2.3015    4.1411    0.0000 O   0  0
    0.5311    5.6767    0.0000 C   0  0
    1.2571    6.6322    0.0000 O   0  0
  1  2  2  0
  1  6  1  0
  2  3  1  0
  2 19  1  0
  3  4  2  0
  4  5  1  0
  4  7  1  0
  5  6  2  0
  5 11  1  0
  7  8  2  0
  7 12  1  0
  8  9  1  0
  9 10  1  0
 10 11  1  0
 10 13  2  0
 11 21  1  0
 12 14  2  0
 12 18  1  0
 14 15  1  0
 15 16  2  0
 16 17  1  0
 17 18  2  0
 18 20  1  0
 21 22  1  0
 22 23  1  0
 22 24  1  0
 24 25  1  0
M  END
> <Name>
Ro10-3580

> <Family>
A.1

> <IC50_uM>
0.140000

> <set>
1

$$$$
Ro07-9238
  SciTegic05270810122D

 27 29  0  0  0  0            999 V2000
   -2.8265    0.7721    0.0000 C   0  0
   -2.8207   -0.7526    0.0000 C   0  0
   -1.4746   -1.5097    0.0000 C   0  0
    0.0108   -0.7417    0.0000 C   0  0
    0.0050    0.7829    0.0000 C   0  0
   -1.4863    1.5396    0.0000 C   0  0
    0.7584   -1.6282    0.0000 C   0  0
    2.2458   -1.3866    0.0000 N   0  0
    2.9483    0.0319    0.0000 C   0  0
    2.2532    1.4268    0.0000 C   0  0
    0.7819    1.7116    0.0000 N   0  0
    0.2374   -3.0356    0.0000 C   0  0
    2.9793    2.3822    0.0000 O   0  0
   -3.8554   -1.3604    0.0000 Cl  0  0
    1.1987   -4.1875    0.0000 C   0  0
    0.6821   -5.5958    0.0000 C   0  0
   -0.7958   -5.8525    0.0000 C   0  0
   -1.7570   -4.7010    0.0000 C   0  0
   -1.2404   -3.2927    0.0000 C   0  0
    0.2030    3.0975    0.0000 C   0  0
    2.3810   -3.9822    0.0000 F   0  0
    1.1111    4.2925    0.0000 C   0  0
    0.5311    5.6767    0.0000 O   0  0
    1.4391    6.8717    0.0000 P   0  3  2  0  0  0
    0.9754    7.9785    0.0000 O   0  5
    2.6295    6.7203    0.0000 O   0  0
    2.1656    7.8268    0.0000 O   0  0
  1  2  2  0
  1  6  1  0
  2  3  1  0
  2 14  1  0
  3  4  2  0
  4  5  1  0
  4  7  1  0
  5  6  2  0
  5 11  1  0
  7  8  2  0
  7 12  1  0
  8  9  1  0
  9 10  1  0
 10 11  1  0
 10 13  2  0
 11 20  1  0
 12 15  2  0
 12 19  1  0
 15 16  1  0
 15 21  1  0
 16 17  2  0
 17 18  1  0
 18 19  2  0
 22 20  1  0
 22 23  1  0
 23 24  1  0
 24 25  1  6
 24 26  1  0
 24 27  1  0
M  CHG  2  24   1  25  -1
M  END
> <Name>
Ro07-9238

> <Family>
A.1

> <IC50_uM>
0.130000

> <set>
1

$$$$
Ro22-4683
  SciTegic05270810122D

 26 28  0  0  0  0            999 V2000
   -2.8265    0.7721    0.0000 C   0  0
   -2.8207   -0.7526    0.0000 C   0  0
   -1.4746   -1.5097    0.0000 C   0  0
    0.0108   -0.7417    0.0000 C   0  0
    0.0050    0.7829    0.0000 C   0  0
   -1.4863    1.5396    0.0000 C   0  0
    0.7584   -1.6282    0.0000 C   0  0
    2.2458   -1.3866    0.0000 N   0  0
    2.9483    0.0319    0.0000 C   0  0
    2.2532    1.4268    0.0000 C   0  0
    0.7819    1.7116    0.0000 N   0  0
    0.2374   -3.0356    0.0000 C   0  0
    2.9793    2.3822    0.0000 O   0  0
   -1.2404   -3.2927    0.0000 C   0  0
   -1.7570   -4.7010    0.0000 C   0  0
   -0.7958   -5.8525    0.0000 C   0  0
    0.6821   -5.5958    0.0000 C   0  0
    1.1987   -4.1875    0.0000 C   0  0
    2.3810   -3.9822    0.0000 Cl  0  0
    0.2002    3.0963    0.0000 C   0  0
   -0.9903    3.2465    0.0000 C   0  0
    0.9253    4.0526    0.0000 C   0  0
   -0.2652    4.2024    0.0000 C   0  0
   -4.1154   -1.5107    0.0000 N   0  3
   -4.1089   -2.7107    0.0000 O   0  0
   -5.1581   -0.9167    0.0000 O   0  5
  1  2  2  0
  1  6  1  0
  2  3  1  0
  2 24  1  0
  3  4  2  0
  4  5  1  0
  4  7  1  0
  5  6  2  0
  5 11  1  0
  7  8  2  0
  7 12  1  0
  8  9  1  0
  9 10  1  0
 10 11  1  0
 10 13  2  0
 11 20  1  0
 12 14  2  0
 12 18  1  0
 14 15  1  0
 15 16  2  0
 16 17  1  0
 17 18  2  0
 18 19  1  0
 20 21  1  0
 20 22  1  0
 20 23  1  0
 24 25  2  0
 24 26  1  0
M  CHG  2  24   1  26  -1
M  END
> <Name>
Ro22-4683

> <Family>
A.1

> <IC50_uM>
0.300000

> <set>
2

$$$$
Ro07-5096
  SciTegic05270810122D

 24 26  0  0  0  0            999 V2000
   -2.8265    0.7721    0.0000 C   0  0
   -2.8207   -0.7526    0.0000 C   0  0
   -1.4746   -1.5097    0.0000 C   0  0
    0.0108   -0.7417    0.0000 C   0  0
    0.0050    0.7829    0.0000 C   0  0
   -1.4863    1.5396    0.0000 C   0  0
    0.7584   -1.6282    0.0000 C   0  0
    2.2458   -1.3866    0.0000 N   0  0
    2.9483    0.0319    0.0000 C   0  0
    2.2532    1.4268    0.0000 C   0  0
    0.7819    1.7116    0.0000 N   0  0
    0.2374   -3.0356    0.0000 C   0  0
    2.9793    2.3822    0.0000 O   0  0
   -1.2404   -3.2927    0.0000 C   0  0
   -1.7570   -4.7010    0.0000 C   0  0
   -0.7958   -5.8525    0.0000 C   0  0
    0.6821   -5.5958    0.0000 C   0  0
    1.1987   -4.1875    0.0000 C   0  0
    2.3810   -3.9822    0.0000 F   0  0
   -3.8554   -1.3604    0.0000 Cl  0  0
    0.2030    3.0975    0.0000 C   0  0
    1.1111    4.2925    0.0000 C   0  0
    0.6473    5.3993    0.0000 O   0  0
    2.3015    4.1411    0.0000 O   0  0
  1  2  2  0
  1  6  1  0
  2  3  1  0
  2 20  1  0
  3  4  2  0
  4  5  1  0
  4  7  1  0
  5  6  2  0
  5 11  1  0
  7  8  2  0
  7 12  1  0
  8  9  1  0
  9 10  1  0
 10 11  1  0
 10 13  2  0
 11 21  1  0
 12 14  2  0
 12 18  1  0
 14 15  1  0
 15 16  2  0
 16 17  1  0
 17 18  2  0
 18 19  1  0
 21 22  1  0
 22 23  2  0
 22 24  1  0
M  END
> <Name>
Ro07-5096

> <Family>
A.1

> <IC50_uM>
>1

> <set>
1

$$$$
Ro05-3663
  SciTegic05270810122D

 13 14  0  0  0  0            999 V2000
   -2.8315    0.7623    0.0000 C   0  0
   -2.8315   -0.7623    0.0000 C   0  0
   -1.4884   -1.5247    0.0000 C   0  0
    0.0000   -0.7623    0.0000 C   0  0
    0.0000    0.7623    0.0000 C   0  0
   -1.4884    1.5247    0.0000 C   0  0
    0.7442   -1.6517    0.0000 C   0  0
    2.2325   -1.4158    0.0000 N   0  0
    2.9404    0.0000    0.0000 C   0  0
    2.2507    1.3976    0.0000 C   0  0
    0.7805    1.6880    0.0000 N   0  0
    2.9804    2.3502    0.0000 O   0  0
    0.3232   -2.7755    0.0000 C   0  0
  1  2  2  0
  1  6  1  0
  2  3  1  0
  3  4  2  0
  4  5  1  0
  4  7  1  0
  5  6  2  0
  5 11  1  0
  7  8  2  0
  7 13  1  0
  8  9  1  0
  9 10  1  0
 10 11  1  0
 10 12  2  0
M  END
> <Name>
Ro05-3663

> <Family>
A.1

> <IC50_uM>
>1

> <set>
1

$$$$
Desmethyltetrazepam
  SciTegic05270810122D

 19 21  0  0  0  0            999 V2000
   -2.8265    0.7721    0.0000 C   0  0
   -2.8207   -0.7526    0.0000 C   0  0
   -1.4746   -1.5097    0.0000 C   0  0
    0.0108   -0.7417    0.0000 C   0  0
    0.0050    0.7829    0.0000 C   0  0
   -1.4863    1.5396    0.0000 C   0  0
    0.7584   -1.6282    0.0000 C   0  0
    2.2458   -1.3866    0.0000 N   0  0
    2.9483    0.0319    0.0000 C   0  0
    2.2532    1.4268    0.0000 C   0  0
    0.7819    1.7116    0.0000 N   0  0
    0.2374   -3.0356    0.0000 C   0  0
    2.9793    2.3822    0.0000 O   0  0
   -3.8554   -1.3604    0.0000 Cl  0  0
    1.1987   -4.1875    0.0000 C   0  0
    0.6821   -5.5958    0.0000 C   0  0
   -0.7958   -5.8525    0.0000 C   0  0
   -1.7570   -4.7010    0.0000 C   0  0
   -1.2404   -3.2927    0.0000 C   0  0
  1  2  2  0
  1  6  1  0
  2  3  1  0
  2 14  1  0
  3  4  2  0
  4  5  1  0
  4  7  1  0
  5  6  2  0
  5 11  1  0
  7  8  2  0
  7 12  1  0
  8  9  1  0
  9 10  1  0
 10 11  1  0
 10 13  2  0
 12 15  2  0
 12 19  1  0
 15 16  1  0
 16 17  1  0
 17 18  1  0
 18 19  1  0
M  END
> <Name>
Desmethyltetrazepam

> <Family>
A.1

> <IC50_uM>
0.034000

> <set>
2

$$$$
Tetrazepam
  SciTegic05270810122D

 20 22  0  0  0  0            999 V2000
   -2.8265    0.7721    0.0000 C   0  0
   -2.8207   -0.7526    0.0000 C   0  0
   -1.4746   -1.5097    0.0000 C   0  0
    0.0108   -0.7417    0.0000 C   0  0
    0.0050    0.7829    0.0000 C   0  0
   -1.4863    1.5396    0.0000 C   0  0
    0.7584   -1.6282    0.0000 C   0  0
    2.2458   -1.3866    0.0000 N   0  0
    2.9483    0.0319    0.0000 C   0  0
    2.2532    1.4268    0.0000 C   0  0
    0.7819    1.7116    0.0000 N   0  0
    0.2374   -3.0356    0.0000 C   0  0
    2.9793    2.3822    0.0000 O   0  0
   -3.8554   -1.3604    0.0000 Cl  0  0
    1.1987   -4.1875    0.0000 C   0  0
    0.6821   -5.5958    0.0000 C   0  0
   -0.7958   -5.8525    0.0000 C   0  0
   -1.7570   -4.7010    0.0000 C   0  0
   -1.2404   -3.2927    0.0000 C   0  0
    0.3801    2.8423    0.0000 C   0  0
  1  2  2  0
  1  6  1  0
  2  3  1  0
  2 14  1  0
  3  4  2  0
  4  5  1  0
  4  7  1  0
  5  6  2  0
  5 11  1  0
  7  8  2  0
  7 12  1  0
  8  9  1  0
  9 10  1  0
 10 11  1  0
 10 13  2  0
 11 20  1  0
 12 15  2  0
 12 19  1  0
 15 16  1  0
 16 17  1  0
 17 18  1  0
 18 19  1  0
M  END
> <Name>
Tetrazepam

> <Family>
A.1

> <IC50_uM>
0.034000

> <set>
2

$$$$
Ro05-3328
  SciTegic05270810122D

 19 21  0  0  0  0            999 V2000
   -2.8265    0.7721    0.0000 C   0  0
   -2.8207   -0.7526    0.0000 C   0  0
   -1.4746   -1.5097    0.0000 C   0  0
    0.0108   -0.7417    0.0000 C   0  0
    0.0050    0.7829    0.0000 C   0  0
   -1.4863    1.5396    0.0000 C   0  0
    0.7584   -1.6282    0.0000 C   0  0
    2.2458   -1.3866    0.0000 N   0  0
    2.9483    0.0319    0.0000 C   0  0
    2.2532    1.4268    0.0000 C   0  0
    0.7819    1.7116    0.0000 N   0  0
    0.2374   -3.0356    0.0000 C   0  0
    2.9793    2.3822    0.0000 O   0  0
   -3.8554   -1.3604    0.0000 Cl  0  0
    1.1987   -4.1875    0.0000 C   0  0
    0.6821   -5.5958    0.0000 C   0  0
   -0.7958   -5.8525    0.0000 C   0  0
   -1.7570   -4.7010    0.0000 C   0  0
   -1.2404   -3.2927    0.0000 C   0  0
  1  2  2  0
  1  6  1  0
  2  3  1  0
  2 14  1  0
  3  4  2  0
  4  5  1  0
  4  7  1  0
  5  6  2  0
  5 11  1  0
  7  8  2  0
  7 12  1  0
  8  9  1  0
  9 10  1  0
 10 11  1  0
 10 13  2  0
 12 15  1  0
 12 19  1  0
 15 16  1  0
 16 17  1  0
 17 18  1  0
 18 19  1  0
M  END
> <Name>
Ro05-3328

> <Family>
A.1

> <IC50_uM>
0.087000

> <set>
1

$$$$
Bromazepam
  SciTegic05270810122D

 19 21  0  0  0  0            999 V2000
   -2.8265    0.7721    0.0000 C   0  0
   -2.8207   -0.7526    0.0000 C   0  0
   -1.4746   -1.5097    0.0000 C   0  0
    0.0108   -0.7417    0.0000 C   0  0
    0.0050    0.7829    0.0000 C   0  0
   -1.4863    1.5396    0.0000 C   0  0
    0.7584   -1.6282    0.0000 C   0  0
    2.2458   -1.3866    0.0000 N   0  0
    2.9483    0.0319    0.0000 C   0  0
    2.2532    1.4268    0.0000 C   0  0
    0.7819    1.7116    0.0000 N   0  0
    0.2374   -3.0356    0.0000 C   0  0
    2.9793    2.3822    0.0000 O   0  0
   -3.8554   -1.3604    0.0000 Br  0  0
    1.1987   -4.1875    0.0000 C   0  0
    0.6821   -5.5958    0.0000 C   0  0
   -0.7958   -5.8525    0.0000 C   0  0
   -1.7570   -4.7010    0.0000 C   0  0
   -1.2404   -3.2927    0.0000 N   0  0
  1  2  2  0
  1  6  1  0
  2  3  1  0
  2 14  1  0
  3  4  2  0
  4  5  1  0
  4  7  1  0
  5  6  2  0
  5 11  1  0
  7  8  2  0
  7 12  1  0
  8  9  1  0
  9 10  1  0
 10 11  1  0
 10 13  2  0
 12 15  2  0
 12 19  1  0
 15 16  1  0
 16 17  2  0
 17 18  1  0
 18 19  2  0
M  END
> <Name>
Bromazepam

> <Family>
A.1

> <IC50_uM>
0.018000

> <set>
1

$$$$
Ro05-5605
  SciTegic05270810122D

 23 26  0  0  0  0            999 V2000
   -2.8265    0.7721    0.0000 C   0  0
   -2.8207   -0.7526    0.0000 C   0  0
   -1.4746   -1.5097    0.0000 C   0  0
    0.0108   -0.7417    0.0000 C   0  0
    0.0050    0.7829    0.0000 C   0  0
   -1.4863    1.5396    0.0000 C   0  0
    0.7584   -1.6282    0.0000 C   0  0
    2.2458   -1.3866    0.0000 N   0  0
    2.9483    0.0319    0.0000 C   0  0
    2.2532    1.4268    0.0000 C   0  0
    0.7819    1.7116    0.0000 N   0  0
    0.2374   -3.0356    0.0000 C   0  0
    2.9793    2.3822    0.0000 O   0  0
   -3.8554   -1.3604    0.0000 Cl  0  0
   -1.2526   -3.2940    0.0000 C   0  0
   -1.7613   -4.7022    0.0000 C   0  0
   -0.7792   -5.8530    0.0000 C   0  0
    0.6945   -5.5893    0.0000 C   0  0
    1.2032   -4.1811    0.0000 C   0  0
    1.6595   -6.7339    0.0000 C   0  0
    3.1331   -6.4702    0.0000 C   0  0
    3.6418   -5.0620    0.0000 C   0  0
    2.6768   -3.9174    0.0000 C   0  0
  1  2  2  0
  1  6  1  0
  2  3  1  0
  2 14  1  0
  3  4  2  0
  4  5  1  0
  4  7  1  0
  5  6  2  0
  5 11  1  0
  7  8  2  0
  7 12  1  0
  8  9  1  0
  9 10  1  0
 10 11  1  0
 10 13  2  0
 12 15  2  0
 12 19  1  0
 15 16  1  0
 16 17  2  0
 17 18  1  0
 18 19  2  0
 18 20  1  0
 19 23  1  0
 20 21  2  0
 21 22  1  0
 22 23  2  0
M  END
> <Name>
Ro05-5605

> <Family>
A.1

> <IC50_uM>
0.290000

> <set>
0

$$$$
Ro05-3580
  SciTegic05270810122D

 20 22  0  0  0  0            999 V2000
   -2.8217    0.7587    0.0000 C   0  0
   -2.8107   -0.7659    0.0000 C   0  0
   -1.4621   -1.5186    0.0000 C   0  0
    0.0207   -0.7455    0.0000 C   0  0
    0.0097    0.7791    0.0000 C   0  0
   -1.4841    1.5307    0.0000 C   0  0
    0.7713   -1.6295    0.0000 C   0  0
    2.2579   -1.3828    0.0000 N   0  0
    2.9556    0.0380    0.0000 C   0  0
    2.2558    1.4306    0.0000 C   0  0
    0.7835    1.7104    0.0000 N   0  0
    2.9786    2.3885    0.0000 O   0  0
   -3.8433   -1.3772    0.0000 Cl  0  0
    0.1574   -3.0008    0.0000 C   0  0
    1.0346   -4.2186    0.0000 C   0  0
    0.4231   -5.5882    0.0000 C   0  0
    1.3035   -6.8027    0.0000 C   0  0
    2.7954   -6.6475    0.0000 C   0  0
    3.4070   -5.2778    0.0000 C   0  0
    2.5266   -4.0634    0.0000 C   0  0
  1  2  2  0
  1  6  1  0
  2  3  1  0
  2 13  1  0
  3  4  2  0
  4  5  1  0
  4  7  1  0
  5  6  2  0
  5 11  1  0
  7  8  2  0
  7 14  1  0
  8  9  1  0
  9 10  1  0
 10 11  1  0
 10 12  2  0
 14 15  1  0
 15 16  2  0
 15 20  1  0
 16 17  1  0
 17 18  2  0
 18 19  1  0
 19 20  2  0
M  END
> <Name>
Ro05-3580

> <Family>
A.1

> <IC50_uM>
>1

> <set>
2

$$$$
Ro11-4878
  SciTegic05270810122D

 21 23  0  0  0  0            999 V2000
   -2.8265    0.7721    0.0000 C   0  0
   -2.8207   -0.7526    0.0000 C   0  0
   -1.4746   -1.5097    0.0000 C   0  0
    0.0108   -0.7417    0.0000 C   0  0
    0.0050    0.7829    0.0000 C   0  0
   -1.4863    1.5396    0.0000 C   0  0
    0.7584   -1.6282    0.0000 C   0  0
    2.2458   -1.3866    0.0000 N   0  0
    2.9483    0.0319    0.0000 C   0  0
    2.2532    1.4268    0.0000 C   0  0
    0.7819    1.7116    0.0000 N   0  0
    0.2374   -3.0356    0.0000 C   0  0
    2.9793    2.3822    0.0000 O   0  0
   -3.8554   -1.3604    0.0000 Cl  0  0
   -1.2404   -3.2927    0.0000 C   0  0
   -1.7570   -4.7010    0.0000 C   0  0
   -0.7958   -5.8525    0.0000 C   0  0
    0.6821   -5.5958    0.0000 C   0  0
    1.1987   -4.1875    0.0000 C   0  0
    2.3810   -3.9822    0.0000 F   0  0
    4.1483    0.0334    0.0000 C   0  0
  1  2  2  0
  1  6  1  0
  2  3  1  0
  2 14  1  0
  3  4  2  0
  4  5  1  0
  4  7  1  0
  5  6  2  0
  5 11  1  0
  7  8  2  0
  7 12  1  0
  8  9  1  0
  9 10  1  0
  9 21  1  0
 10 11  1  0
 10 13  2  0
 12 15  2  0
 12 19  1  0
 15 16  1  0
 16 17  2  0
 17 18  1  0
 18 19  2  0
 19 20  1  0
M  END
> <Name>
Ro11-4878

> <Family>
A.1

> <IC50_uM>
0.003500

> <set>
2

$$$$
Meclonazepam
  SciTegic05270810122D

 23 25  0  0  0  0            999 V2000
   -2.8265    0.7721    0.0000 C   0  0
   -2.8207   -0.7526    0.0000 C   0  0
   -1.4746   -1.5097    0.0000 C   0  0
    0.0108   -0.7417    0.0000 C   0  0
    0.0050    0.7829    0.0000 C   0  0
   -1.4863    1.5396    0.0000 C   0  0
    0.7584   -1.6282    0.0000 C   0  0
    2.2458   -1.3866    0.0000 N   0  0
    2.9483    0.0319    0.0000 C   0  0
    2.2532    1.4268    0.0000 C   0  0
    0.7819    1.7116    0.0000 N   0  0
    0.2374   -3.0356    0.0000 C   0  0
    2.9793    2.3822    0.0000 O   0  0
   -1.2404   -3.2927    0.0000 C   0  0
   -1.7570   -4.7010    0.0000 C   0  0
   -0.7958   -5.8525    0.0000 C   0  0
    0.6821   -5.5958    0.0000 C   0  0
    1.1987   -4.1875    0.0000 C   0  0
    2.3810   -3.9822    0.0000 Cl  0  0
   -4.1154   -1.5107    0.0000 N   0  3
   -4.1089   -2.7107    0.0000 O   0  0
   -5.1581   -0.9167    0.0000 O   0  5
    4.1483    0.0334    0.0000 C   0  0
  1  2  2  0
  1  6  1  0
  2  3  1  0
  2 20  1  0
  3  4  2  0
  4  5  1  0
  4  7  1  0
  5  6  2  0
  5 11  1  0
  7  8  2  0
  7 12  1  0
  8  9  1  0
  9 10  1  0
  9 23  1  0
 10 11  1  0
 10 13  2  0
 12 14  2  0
 12 18  1  0
 14 15  1  0
 15 16  2  0
 16 17  1  0
 17 18  2  0
 18 19  1  0
 20 21  2  0
 20 22  1  0
M  CHG  2  20   1  22  -1
M  END
> <Name>
Meclonazepam

> <Family>
A.1

> <IC50_uM>
0.001200

> <set>
1

$$$$
Ro11-6896
  SciTegic05270810122D

 24 26  0  0  0  0            999 V2000
   -2.8265    0.7721    0.0000 C   0  0
   -2.8207   -0.7526    0.0000 C   0  0
   -1.4746   -1.5097    0.0000 C   0  0
    0.0108   -0.7417    0.0000 C   0  0
    0.0050    0.7829    0.0000 C   0  0
   -1.4863    1.5396    0.0000 C   0  0
    0.7584   -1.6282    0.0000 C   0  0
    2.2458   -1.3866    0.0000 N   0  0
    2.9483    0.0319    0.0000 C   0  0
    2.2532    1.4268    0.0000 C   0  0
    0.7819    1.7116    0.0000 N   0  0
    0.2374   -3.0356    0.0000 C   0  0
    2.9793    2.3822    0.0000 O   0  0
   -1.2404   -3.2927    0.0000 C   0  0
   -1.7570   -4.7010    0.0000 C   0  0
   -0.7958   -5.8525    0.0000 C   0  0
    0.6821   -5.5958    0.0000 C   0  0
    1.1987   -4.1875    0.0000 C   0  0
    2.3810   -3.9822    0.0000 F   0  0
   -4.1154   -1.5107    0.0000 N   0  3
   -4.1089   -2.7107    0.0000 O   0  0
   -5.1581   -0.9167    0.0000 O   0  5
    0.3801    2.8423    0.0000 C   0  0
    4.1483    0.0334    0.0000 C   0  0
  1  2  2  0
  1  6  1  0
  2  3  1  0
  2 20  1  0
  3  4  2  0
  4  5  1  0
  4  7  1  0
  5  6  2  0
  5 11  1  0
  7  8  2  0
  7 12  1  0
  8  9  1  0
  9 10  1  0
  9 24  1  0
 10 11  1  0
 10 13  2  0
 11 23  1  0
 12 14  2  0
 12 18  1  0
 14 15  1  0
 15 16  2  0
 16 17  1  0
 17 18  2  0
 18 19  1  0
 20 21  2  0
 20 22  1  0
M  CHG  2  20   1  22  -1
M  END
> <Name>
Ro11-6896

> <Family>
A.1

> <IC50_uM>
0.007000

> <set>
2

$$$$
Ro07-4532
  SciTegic05270810122D

 22 24  0  0  0  0            999 V2000
   -2.8265    0.7721    0.0000 C   0  0
   -2.8207   -0.7526    0.0000 C   0  0
   -1.4746   -1.5097    0.0000 C   0  0
    0.0108   -0.7417    0.0000 C   0  0
    0.0050    0.7829    0.0000 C   0  0
   -1.4863    1.5396    0.0000 C   0  0
    0.7584   -1.6282    0.0000 C   0  0
    2.2458   -1.3866    0.0000 N   0  0
    2.9483    0.0319    0.0000 C   0  0
    2.2532    1.4268    0.0000 C   0  0
    0.7819    1.7116    0.0000 N   0  0
    0.2374   -3.0356    0.0000 C   0  0
    2.9793    2.3822    0.0000 O   0  0
    1.1987   -4.1875    0.0000 C   0  0
    0.6821   -5.5958    0.0000 C   0  0
   -0.7958   -5.8525    0.0000 C   0  0
   -1.7570   -4.7010    0.0000 C   0  0
   -1.2404   -3.2927    0.0000 C   0  0
   -3.8554   -1.3604    0.0000 Cl  0  0
    0.3801    2.8423    0.0000 C   0  0
    3.5165    1.0888    0.0000 C   0  0
    3.5192   -1.0236    0.0000 C   0  0
  1  2  2  0
  1  6  1  0
  2  3  1  0
  2 19  1  0
  3  4  2  0
  4  5  1  0
  4  7  1  0
  5  6  2  0
  5 11  1  0
  7  8  2  0
  7 12  1  0
  8  9  1  0
  9 10  1  0
  9 21  1  0
  9 22  1  0
 10 11  1  0
 10 13  2  0
 11 20  1  0
 12 14  2  0
 12 18  1  0
 14 15  1  0
 15 16  2  0
 16 17  1  0
 17 18  2  0
M  END
> <Name>
Ro07-4532

> <Family>
A.1

> <IC50_uM>
>1

> <set>
2

$$$$
Ro06-7263
  SciTegic05270810122D

 21 23  0  0  0  0            999 V2000
   -2.8265    0.7721    0.0000 C   0  0
   -2.8207   -0.7526    0.0000 C   0  0
   -1.4746   -1.5097    0.0000 C   0  0
    0.0108   -0.7417    0.0000 C   0  0
    0.0050    0.7829    0.0000 C   0  0
   -1.4863    1.5396    0.0000 C   0  0
    0.7584   -1.6282    0.0000 C   0  0
    2.2458   -1.3866    0.0000 N   0  0
    2.9483    0.0319    0.0000 C   0  0
    2.2532    1.4268    0.0000 C   0  0
    0.7819    1.7116    0.0000 N   0  0
    0.2374   -3.0356    0.0000 C   0  0
    2.9793    2.3822    0.0000 O   0  0
    1.1987   -4.1875    0.0000 C   0  0
    0.6821   -5.5958    0.0000 C   0  0
   -0.7958   -5.8525    0.0000 C   0  0
   -1.7570   -4.7010    0.0000 C   0  0
   -1.2404   -3.2927    0.0000 C   0  0
   -3.8554   -1.3604    0.0000 Cl  0  0
    0.3801    2.8423    0.0000 Cl  0  0
    4.1483    0.0334    0.0000 C   0  0
  1  2  2  0
  1  6  1  0
  2  3  1  0
  2 19  1  0
  3  4  2  0
  4  5  1  0
  4  7  1  0
  5  6  2  0
  5 11  1  0
  7  8  2  0
  7 12  1  0
  8  9  1  0
  9 10  1  0
  9 21  1  0
 10 11  1  0
 10 13  2  0
 11 20  1  0
 12 14  2  0
 12 18  1  0
 14 15  1  0
 15 16  2  0
 16 17  1  0
 17 18  2  0
M  END
> <Name>
Ro06-7263

> <Family>
A.1

> <IC50_uM>
0.049000

> <set>
1

$$$$
Oxazepam
  SciTegic05270810122D

 20 22  0  0  0  0            999 V2000
   -2.8265    0.7721    0.0000 C   0  0
   -2.8207   -0.7526    0.0000 C   0  0
   -1.4746   -1.5097    0.0000 C   0  0
    0.0108   -0.7417    0.0000 C   0  0
    0.0050    0.7829    0.0000 C   0  0
   -1.4863    1.5396    0.0000 C   0  0
    0.7584   -1.6282    0.0000 C   0  0
    2.2458   -1.3866    0.0000 N   0  0
    2.9483    0.0319    0.0000 C   0  0
    2.2532    1.4268    0.0000 C   0  0
    0.7819    1.7116    0.0000 N   0  0
    0.2374   -3.0356    0.0000 C   0  0
    2.9793    2.3822    0.0000 O   0  0
    1.1987   -4.1875    0.0000 C   0  0
    0.6821   -5.5958    0.0000 C   0  0
   -0.7958   -5.8525    0.0000 C   0  0
   -1.7570   -4.7010    0.0000 C   0  0
   -1.2404   -3.2927    0.0000 C   0  0
   -3.8554   -1.3604    0.0000 Cl  0  0
    4.1483    0.0334    0.0000 O   0  0
  1  2  2  0
  1  6  1  0
  2  3  1  0
  2 19  1  0
  3  4  2  0
  4  5  1  0
  4  7  1  0
  5  6  2  0
  5 11  1  0
  7  8  2  0
  7 12  1  0
  8  9  1  0
  9 10  1  0
  9 20  1  0
 10 11  1  0
 10 13  2  0
 12 14  2  0
 12 18  1  0
 14 15  1  0
 15 16  2  0
 16 17  1  0
 17 18  2  0
M  END
> <Name>
Oxazepam

> <Family>
A.1

> <IC50_uM>
0.018000

> <set>
1

$$$$
Temazepam
  SciTegic05270810122D

 21 23  0  0  0  0            999 V2000
   -2.8265    0.7721    0.0000 C   0  0
   -2.8207   -0.7526    0.0000 C   0  0
   -1.4746   -1.5097    0.0000 C   0  0
    0.0108   -0.7417    0.0000 C   0  0
    0.0050    0.7829    0.0000 C   0  0
   -1.4863    1.5396    0.0000 C   0  0
    0.7584   -1.6282    0.0000 C   0  0
    2.2458   -1.3866    0.0000 N   0  0
    2.9483    0.0319    0.0000 C   0  0
    2.2532    1.4268    0.0000 C   0  0
    0.7819    1.7116    0.0000 N   0  0
    0.2374   -3.0356    0.0000 C   0  0
    2.9793    2.3822    0.0000 O   0  0
    1.1987   -4.1875    0.0000 C   0  0
    0.6821   -5.5958    0.0000 C   0  0
   -0.7958   -5.8525    0.0000 C   0  0
   -1.7570   -4.7010    0.0000 C   0  0
   -1.2404   -3.2927    0.0000 C   0  0
   -3.8554   -1.3604    0.0000 Cl  0  0
    4.1483    0.0334    0.0000 O   0  0
    0.3801    2.8423    0.0000 C   0  0
  1  2  2  0
  1  6  1  0
  2  3  1  0
  2 19  1  0
  3  4  2  0
  4  5  1  0
  4  7  1  0
  5  6  2  0
  5 11  1  0
  7  8  2  0
  7 12  1  0
  8  9  1  0
  9 10  1  0
  9 20  1  0
 10 11  1  0
 10 13  2  0
 11 21  1  0
 12 14  2  0
 12 18  1  0
 14 15  1  0
 15 16  2  0
 16 17  1  0
 17 18  2  0
M  END
> <Name>
Temazepam

> <Family>
A.1

> <IC50_uM>
0.016000

> <set>
1

$$$$
Lorazepam
  SciTegic05270810122D

 21 23  0  0  0  0            999 V2000
   -2.8265    0.7721    0.0000 C   0  0
   -2.8207   -0.7526    0.0000 C   0  0
   -1.4746   -1.5097    0.0000 C   0  0
    0.0108   -0.7417    0.0000 C   0  0
    0.0050    0.7829    0.0000 C   0  0
   -1.4863    1.5396    0.0000 C   0  0
    0.7584   -1.6282    0.0000 C   0  0
    2.2458   -1.3866    0.0000 N   0  0
    2.9483    0.0319    0.0000 C   0  0
    2.2532    1.4268    0.0000 C   0  0
    0.7819    1.7116    0.0000 N   0  0
    0.2374   -3.0356    0.0000 C   0  0
    2.9793    2.3822    0.0000 O   0  0
   -1.2404   -3.2927    0.0000 C   0  0
   -1.7570   -4.7010    0.0000 C   0  0
   -0.7958   -5.8525    0.0000 C   0  0
    0.6821   -5.5958    0.0000 C   0  0
    1.1987   -4.1875    0.0000 C   0  0
   -3.8554   -1.3604    0.0000 Cl  0  0
    4.1483    0.0334    0.0000 O   0  0
    2.3810   -3.9822    0.0000 Cl  0  0
  1  2  2  0
  1  6  1  0
  2  3  1  0
  2 19  1  0
  3  4  2  0
  4  5  1  0
  4  7  1  0
  5  6  2  0
  5 11  1  0
  7  8  2  0
  7 12  1  0
  8  9  1  0
  9 10  1  0
  9 20  1  0
 10 11  1  0
 10 13  2  0
 12 14  2  0
 12 18  1  0
 14 15  1  0
 15 16  2  0
 16 17  1  0
 17 18  2  0
 18 21  1  0
M  END
> <Name>
Lorazepam

> <Family>
A.1

> <IC50_uM>
0.003500

> <set>
1

$$$$
Oxazepam-hemisuccinate
  SciTegic05270810122D

 27 29  0  0  0  0            999 V2000
   -2.8265    0.7721    0.0000 C   0  0
   -2.8207   -0.7526    0.0000 C   0  0
   -1.4746   -1.5097    0.0000 C   0  0
    0.0108   -0.7417    0.0000 C   0  0
    0.0050    0.7829    0.0000 C   0  0
   -1.4863    1.5396    0.0000 C   0  0
    0.7584   -1.6282    0.0000 C   0  0
    2.2458   -1.3866    0.0000 N   0  0
    2.9483    0.0319    0.0000 C   0  0
    2.2532    1.4268    0.0000 C   0  0
    0.7819    1.7116    0.0000 N   0  0
    0.2374   -3.0356    0.0000 C   0  0
    2.9793    2.3822    0.0000 O   0  0
    1.1987   -4.1875    0.0000 C   0  0
    0.6821   -5.5958    0.0000 C   0  0
   -0.7958   -5.8525    0.0000 C   0  0
   -1.7570   -4.7010    0.0000 C   0  0
   -1.2404   -3.2927    0.0000 C   0  0
   -3.8554   -1.3604    0.0000 Cl  0  0
    4.4501    0.0379    0.0000 O   0  0
    5.2067   -1.2582    0.0000 C   0  0
    4.6113   -2.3001    0.0000 O   0  0
    6.7075   -1.2521    0.0000 C   0  0
    7.4641   -2.5482    0.0000 C   0  0
    8.9649   -2.5421    0.0000 C   0  0
    9.5698   -3.5784    0.0000 O   0  0
    9.5603   -1.5002    0.0000 O   0  0
  1  2  2  0
  1  6  1  0
  2  3  1  0
  2 19  1  0
  3  4  2  0
  4  5  1  0
  4  7  1  0
  5  6  2  0
  5 11  1  0
  7  8  2  0
  7 12  1  0
  8  9  1  0
  9 10  1  0
  9 20  1  0
 10 11  1  0
 10 13  2  0
 12 14  2  0
 12 18  1  0
 14 15  1  0
 15 16  2  0
 16 17  1  0
 17 18  2  0
 20 21  1  0
 21 22  2  0
 21 23  1  0
 23 24  1  0
 24 25  1  0
 25 26  2  0
 25 27  1  0
M  END
> <Name>
Oxazepam-hemisuccinate

> <Family>
A.1

> <IC50_uM>
0.330000

> <set>
2

$$$$
Camazepam
  SciTegic05270810122D

 26 28  0  0  0  0            999 V2000
   -2.8265    0.7721    0.0000 C   0  0
   -2.8207   -0.7526    0.0000 C   0  0
   -1.4746   -1.5097    0.0000 C   0  0
    0.0108   -0.7417    0.0000 C   0  0
    0.0050    0.7829    0.0000 C   0  0
   -1.4863    1.5396    0.0000 C   0  0
    0.7584   -1.6282    0.0000 C   0  0
    2.2458   -1.3866    0.0000 N   0  0
    2.9483    0.0319    0.0000 C   0  0
    2.2532    1.4268    0.0000 C   0  0
    0.7819    1.7116    0.0000 N   0  0
    0.2374   -3.0356    0.0000 C   0  0
    2.9793    2.3822    0.0000 O   0  0
    1.1987   -4.1875    0.0000 C   0  0
    0.6821   -5.5958    0.0000 C   0  0
   -0.7958   -5.8525    0.0000 C   0  0
   -1.7570   -4.7010    0.0000 C   0  0
   -1.2404   -3.2927    0.0000 C   0  0
   -3.8554   -1.3604    0.0000 Cl  0  0
    0.3801    2.8423    0.0000 C   0  0
    4.4501    0.0379    0.0000 O   0  0
    5.2067   -1.2582    0.0000 C   0  0
    4.6113   -2.3001    0.0000 O   0  0
    6.7075   -1.2521    0.0000 N   0  0
    7.3124   -2.2884    0.0000 C   0  0
    7.3029   -0.2102    0.0000 C   0  0
  1  2  2  0
  1  6  1  0
  2  3  1  0
  2 19  1  0
  3  4  2  0
  4  5  1  0
  4  7  1  0
  5  6  2  0
  5 11  1  0
  7  8  2  0
  7 12  1  0
  8  9  1  0
  9 10  1  0
  9 21  1  0
 10 11  1  0
 10 13  2  0
 11 20  1  0
 12 14  2  0
 12 18  1  0
 14 15  1  0
 15 16  2  0
 16 17  1  0
 17 18  2  0
 21 22  1  0
 22 23  2  0
 22 24  1  0
 24 25  1  0
 24 26  1  0
M  END
> <Name>
Camazepam

> <Family>
A.1

> <IC50_uM>
0.900000

> <set>
2

$$$$
Ro20-7078
  SciTegic05270810122D

 22 24  0  0  0  0            999 V2000
   -2.8265    0.7721    0.0000 C   0  0
   -2.8207   -0.7526    0.0000 C   0  0
   -1.4746   -1.5097    0.0000 C   0  0
    0.0108   -0.7417    0.0000 C   0  0
    0.0050    0.7829    0.0000 C   0  0
   -1.4863    1.5396    0.0000 C   0  0
    0.7584   -1.6282    0.0000 C   0  0
    2.2458   -1.3866    0.0000 N   0  0
    2.9483    0.0319    0.0000 C   0  0
    2.2532    1.4268    0.0000 C   0  0
    0.7819    1.7116    0.0000 N   0  0
    0.2374   -3.0356    0.0000 C   0  0
    2.9793    2.3822    0.0000 O   0  0
   -1.2404   -3.2927    0.0000 C   0  0
   -1.7570   -4.7010    0.0000 C   0  0
   -0.7958   -5.8525    0.0000 C   0  0
    0.6821   -5.5958    0.0000 C   0  0
    1.1987   -4.1875    0.0000 C   0  0
   -3.8554   -1.3604    0.0000 Cl  0  0
    0.3801    2.8423    0.0000 C   0  0
    4.1483    0.0334    0.0000 Cl  0  0
    2.3810   -3.9822    0.0000 F   0  0
  1  2  2  0
  1  6  1  0
  2  3  1  0
  2 19  1  0
  3  4  2  0
  4  5  1  0
  4  7  1  0
  5  6  2  0
  5 11  1  0
  7  8  2  0
  7 12  1  0
  8  9  1  0
  9 10  1  0
  9 21  1  0
 10 11  1  0
 10 13  2  0
 11 20  1  0
 12 14  2  0
 12 18  1  0
 14 15  1  0
 15 16  2  0
 16 17  1  0
 17 18  2  0
 18 22  1  0
M  END
> <Name>
Ro20-7078

> <Family>
A.1

> <IC50_uM>
0.005300

> <set>
1

$$$$
Clorazepate
  SciTegic05270810122D

 22 24  0  0  0  0            999 V2000
   -2.8265    0.7721    0.0000 C   0  0
   -2.8207   -0.7526    0.0000 C   0  0
   -1.4746   -1.5097    0.0000 C   0  0
    0.0108   -0.7417    0.0000 C   0  0
    0.0050    0.7829    0.0000 C   0  0
   -1.4863    1.5396    0.0000 C   0  0
    0.7584   -1.6282    0.0000 C   0  0
    2.2458   -1.3866    0.0000 N   0  0
    2.9483    0.0319    0.0000 C   0  0
    2.2532    1.4268    0.0000 C   0  0
    0.7819    1.7116    0.0000 N   0  0
    0.2374   -3.0356    0.0000 C   0  0
    2.9793    2.3822    0.0000 O   0  0
    1.1987   -4.1875    0.0000 C   0  0
    0.6821   -5.5958    0.0000 C   0  0
   -0.7958   -5.8525    0.0000 C   0  0
   -1.7570   -4.7010    0.0000 C   0  0
   -1.2404   -3.2927    0.0000 C   0  0
   -3.8554   -1.3604    0.0000 Cl  0  0
    4.4501    0.0379    0.0000 C   0  0
    5.0551   -0.9984    0.0000 O   0  0
    5.0455    1.0798    0.0000 O   0  0
  1  2  2  0
  1  6  1  0
  2  3  1  0
  2 19  1  0
  3  4  2  0
  4  5  1  0
  4  7  1  0
  5  6  2  0
  5 11  1  0
  7  8  2  0
  7 12  1  0
  8  9  1  0
  9 10  1  0
  9 20  1  0
 10 11  1  0
 10 13  2  0
 12 14  2  0
 12 18  1  0
 14 15  1  0
 15 16  2  0
 16 17  1  0
 17 18  2  0
 20 21  2  0
 20 22  1  0
M  END
> <Name>
Clorazepate

> <Family>
A.1

> <IC50_uM>
0.059000

> <set>
2

$$$$
